
===================
  PFLOTRAN v3.0.1
===================

 Extent of Gridded Domain
  X: 2.5000000000000000 - 97.500000000000000
  Y: 2.5000000000000000 - 1277.5000000000000
  Z: 2.5000000000000000 - 2.5000000000000000


=+=+=+=+=+=+=+=+=+=+=+=+=+=+=+=+=+=+=+=+=+=+=+=+=+=+=+=+=+=+=+=+=+=+=+=+=+=+=+=+

  Initial Condition

--------------------------------------------------------------------------------
          Flow Condition:   initial
                  Region:   all
--------------------------------------------------------------------------------

  Flow Condition: initial
    Synchronize time with update: no
    Time units: yr
    Length units: m
      Datum:
        Dataset: Unnamed Ascii Dataset
          Type: dataset_ascii_type
          Transient: no
          Array Rank:  3

    Sub Condition: pressure
      Type: hydrostatic
      Gradient:
        Dataset: Unnamed Ascii Dataset
          Type: dataset_ascii_type
          Transient: no
          Array Rank:  3
      Data:
        Dataset: Unnamed Ascii Dataset
          Type: dataset_ascii_type
          Transient: no
          Array Rank:  1

    Sub Condition: temperature
      Type: dirichlet
      Gradient:
      Data:
        Dataset: Unnamed Ascii Dataset
          Type: dataset_ascii_type
          Transient: no
          Array Rank:  1

--------------------------------------------------------------------------------

=+=+=+=+=+=+=+=+=+=+=+=+=+=+=+=+=+=+=+=+=+=+=+=+=+=+=+=+=+=+=+=+=+=+=+=+=+=+=+=+

  Boundary Condition

--------------------------------------------------------------------------------
          Flow Condition:   initial
                  Region:   north
--------------------------------------------------------------------------------

  Flow Condition: initial
    Synchronize time with update: no
    Time units: yr
    Length units: m
      Datum:
        Dataset: Unnamed Ascii Dataset
          Type: dataset_ascii_type
          Transient: no
          Array Rank:  3

    Sub Condition: pressure
      Type: hydrostatic
      Gradient:
        Dataset: Unnamed Ascii Dataset
          Type: dataset_ascii_type
          Transient: no
          Array Rank:  3
      Data:
        Dataset: Unnamed Ascii Dataset
          Type: dataset_ascii_type
          Transient: no
          Array Rank:  1

    Sub Condition: temperature
      Type: dirichlet
      Gradient:
      Data:
        Dataset: Unnamed Ascii Dataset
          Type: dataset_ascii_type
          Transient: no
          Array Rank:  1

--------------------------------------------------------------------------------

=+=+=+=+=+=+=+=+=+=+=+=+=+=+=+=+=+=+=+=+=+=+=+=+=+=+=+=+=+=+=+=+=+=+=+=+=+=+=+=+

  Boundary Condition

--------------------------------------------------------------------------------
          Flow Condition:   initial
                  Region:   south
--------------------------------------------------------------------------------

  Flow Condition: initial
    Synchronize time with update: no
    Time units: yr
    Length units: m
      Datum:
        Dataset: Unnamed Ascii Dataset
          Type: dataset_ascii_type
          Transient: no
          Array Rank:  3

    Sub Condition: pressure
      Type: hydrostatic
      Gradient:
        Dataset: Unnamed Ascii Dataset
          Type: dataset_ascii_type
          Transient: no
          Array Rank:  3
      Data:
        Dataset: Unnamed Ascii Dataset
          Type: dataset_ascii_type
          Transient: no
          Array Rank:  1

    Sub Condition: temperature
      Type: dirichlet
      Gradient:
      Data:
        Dataset: Unnamed Ascii Dataset
          Type: dataset_ascii_type
          Transient: no
          Array Rank:  1

--------------------------------------------------------------------------------

=+=+=+=+=+=+=+=+=+=+=+=+=+=+=+=+=+=+=+=+=+=+=+=+=+=+=+=+=+=+=+=+=+=+=+=+=+=+=+=+

  Source Sink

--------------------------------------------------------------------------------
          Flow Condition:   injection
                  Region:   heatpump_inject0
--------------------------------------------------------------------------------

  Flow Condition: injection
    Synchronize time with update: no
    Time units: yr
    Length units: m
      Datum:

    Sub Condition: rate
      Type: scaled volumetric rate
      Gradient:
      Data:
        Dataset: Unnamed Ascii Dataset
          Type: dataset_ascii_type
          Is transient?: yes
          Number of times:      3
          Is cyclic?: no
          Buffer:
            Rank:  2
            Dims:    1   3
            Buffer Slice Size:   0
          Array Rank:  1

    Sub Condition: temperature
      Type: dirichlet
      Gradient:
      Data:
        Dataset: Unnamed Ascii Dataset
          Type: dataset_ascii_type
          Transient: no
          Array Rank:  1

--------------------------------------------------------------------------------

 Requested processors =    16

FLOW Time Stepper
                 acceleration: on
       acceleration threshold: 5
       number of ramp entries: 5
                ramp entry #1: 2.0000
                ramp entry #2: 2.0000
                ramp entry #3: 2.0000
                ramp entry #4: 2.0000
                ramp entry #5: 2.0000
                ramp entry #6: 1.8000
                ramp entry #7: 1.6000
                ramp entry #8: 1.4000
                ramp entry #9: 1.2000
               ramp entry #10: 1.0000
               ramp entry #11: 1.0000
               ramp entry #12: 1.0000
               ramp entry #13: 1.0000
      maximum number of steps: 999999
constant time steps threshold: 5
       maximum number of cuts: 16
             reduction factor: 5.000000E-01
        maximum growth factor: 2.000000E+00

FLOW Newton Solver
                         atol: 1.000000E-50
                         rtol: 1.000000E-03
                         stol: 1.000000E-08
                         dtol: 1.000000E+04
                      maxnorm: 1.000000E+20
                    inftolres: -9.990000E+02
                    inftolupd: 1.000000E+00
                 inftolrelupd: -9.990000E+02
                 inftolsclres: -9.990000E+02
                     max iter: 50
                     min iter: 1
                         maxf: 10000
                  matrix type: baij
         precond. matrix type: baij
               inexact newton: off
            print convergence: on
   print detailed convergence: off
          check infinity norm: on

FLOW Linear Solver
                       solver: bcgs
               preconditioner: bjacobi
                         atol: 1.000000E-50
                         rtol: 1.000000E-05
                         dtol: 1.000000E+04
            maximum iteration: 10000

== TH FLOW =====================================================================
 Step      1 Time=  1.00000E-05 Dt=  1.00000E-05 [y] snes_conv_reason:   11
  newton =   1 [       1] linear =    61 [        61] cuts =  0 [   0]
  --> max chng: dpmx=   1.3408E-02 dtmpmx=   4.4955E-10

== TH FLOW =====================================================================
 Step      2 Time=  3.00000E-05 Dt=  2.00000E-05 [y] snes_conv_reason:   11
  newton =   1 [       2] linear =    60 [       121] cuts =  0 [   0]
  --> max chng: dpmx=   2.2917E-02 dtmpmx=   8.9422E-10

== TH FLOW =====================================================================
 Step      3 Time=  7.00000E-05 Dt=  4.00000E-05 [y] snes_conv_reason:   11
  newton =   1 [       3] linear =    59 [       180] cuts =  0 [   0]
  --> max chng: dpmx=   3.0853E-02 dtmpmx=   1.7697E-09

== TH FLOW =====================================================================
 Step      4 Time=  1.50000E-04 Dt=  8.00000E-05 [y] snes_conv_reason:   11
  newton =   1 [       4] linear =    56 [       236] cuts =  0 [   0]
  --> max chng: dpmx=   2.9799E-02 dtmpmx=   3.4995E-09

== TH FLOW =====================================================================
 Step      5 Time=  3.10000E-04 Dt=  1.60000E-04 [y] snes_conv_reason:   11
  newton =   1 [       5] linear =    45 [       281] cuts =  0 [   0]
  --> max chng: dpmx=   1.8710E-02 dtmpmx=   6.9477E-09

== TH FLOW =====================================================================
 Step      6 Time=  6.30000E-04 Dt=  3.20000E-04 [y] snes_conv_reason:   11
  newton =   1 [       6] linear =    58 [       339] cuts =  0 [   0]
  --> max chng: dpmx=   6.9488E-03 dtmpmx=   1.3857E-08

== TH FLOW =====================================================================
 Step      7 Time=  1.27000E-03 Dt=  6.40000E-04 [y] snes_conv_reason:   11
  newton =   1 [       7] linear =    97 [       436] cuts =  0 [   0]
  --> max chng: dpmx=   1.4218E-03 dtmpmx=   2.7699E-08

== TH FLOW =====================================================================
 Step      8 Time=  2.55000E-03 Dt=  1.28000E-03 [y] snes_conv_reason:   11
  newton =   1 [       8] linear =   122 [       558] cuts =  0 [   0]
  --> max chng: dpmx=   1.5320E-04 dtmpmx=   5.5396E-08

== TH FLOW =====================================================================
 Step      9 Time=  5.11000E-03 Dt=  2.56000E-03 [y] snes_conv_reason:   11
  newton =   1 [       9] linear =   114 [       672] cuts =  0 [   0]
  --> max chng: dpmx=   8.2684E-06 dtmpmx=   1.1079E-07

== TH FLOW =====================================================================
 Step     10 Time=  1.02300E-02 Dt=  5.12000E-03 [y] snes_conv_reason:   11
  newton =   1 [      10] linear =   122 [       794] cuts =  0 [   0]
  --> max chng: dpmx=   8.9698E-07 dtmpmx=   2.2159E-07

== TH FLOW =====================================================================
 Step     11 Time=  2.04700E-02 Dt=  1.02400E-02 [y] snes_conv_reason:   11
  newton =   1 [      11] linear =   112 [       906] cuts =  0 [   0]
  --> max chng: dpmx=   1.8348E-06 dtmpmx=   4.4317E-07

== TH FLOW =====================================================================
 Step     12 Time=  4.09500E-02 Dt=  2.04800E-02 [y] snes_conv_reason:   11
  newton =   1 [      12] linear =   120 [      1026] cuts =  0 [   0]
  --> max chng: dpmx=   3.7764E-06 dtmpmx=   8.8634E-07

== TH FLOW =====================================================================
 Step     13 Time=  8.19100E-02 Dt=  4.09600E-02 [y] snes_conv_reason:   11
  newton =   1 [      13] linear =   117 [      1143] cuts =  0 [   0]
  --> max chng: dpmx=   7.9538E-06 dtmpmx=   1.7727E-06

== TH FLOW =====================================================================
 Step     14 Time=  1.00000E-01 Dt=  1.80900E-02 [y] snes_conv_reason:   11
  newton =   1 [      14] linear =   122 [      1265] cuts =  0 [   0]
  --> max chng: dpmx=   3.5956E-06 dtmpmx=   7.8291E-07

== TH FLOW =====================================================================
 Step     15 Time=  1.50000E-01 Dt=  5.00000E-02 [y] snes_conv_reason:   11
  newton =   1 [      15] linear =   116 [      1381] cuts =  0 [   0]
  --> max chng: dpmx=   1.0560E-05 dtmpmx=   2.1639E-06

== TH FLOW =====================================================================
 Step     16 Time=  2.00000E-01 Dt=  5.00000E-02 [y] snes_conv_reason:   11
  newton =   1 [      16] linear =   120 [      1501] cuts =  0 [   0]
  --> max chng: dpmx=   1.1165E-05 dtmpmx=   2.1639E-06

== TH FLOW =====================================================================
 Step     17 Time=  2.50000E-01 Dt=  5.00000E-02 [y] snes_conv_reason:    3
  newton =   4 [      20] linear =   480 [      1981] cuts =  0 [   0]
  --> max chng: dpmx=   8.3551E+03 dtmpmx=   3.5020E+00

== TH FLOW =====================================================================
 Step     18 Time=  3.00000E-01 Dt=  5.00000E-02 [y] snes_conv_reason:   11
  newton =   2 [      22] linear =   219 [      2200] cuts =  0 [   0]
  --> max chng: dpmx=   5.3357E+01 dtmpmx=   1.2010E+00

== TH FLOW =====================================================================
 Step     19 Time=  3.50000E-01 Dt=  5.00000E-02 [y] snes_conv_reason:   11
  newton =   2 [      24] linear =   214 [      2414] cuts =  0 [   0]
  --> max chng: dpmx=   2.7442E+01 dtmpmx=   8.5111E-01

== TH FLOW =====================================================================
 Step     20 Time=  4.00000E-01 Dt=  5.00000E-02 [y] snes_conv_reason:   11
  newton =   2 [      26] linear =   216 [      2630] cuts =  0 [   0]
  --> max chng: dpmx=   1.7051E+01 dtmpmx=   6.1298E-01

== TH FLOW =====================================================================
 Step     21 Time=  4.50000E-01 Dt=  5.00000E-02 [y] snes_conv_reason:   11
  newton =   2 [      28] linear =   215 [      2845] cuts =  0 [   0]
  --> max chng: dpmx=   1.2395E+01 dtmpmx=   5.4277E-01

== TH FLOW =====================================================================
 Step     22 Time=  5.00000E-01 Dt=  5.00000E-02 [y] snes_conv_reason:    3
  newton =   1 [      29] linear =   106 [      2951] cuts =  0 [   0]
  --> max chng: dpmx=   9.9065E+00 dtmpmx=   4.5842E-01

== TH FLOW =====================================================================
 Step     23 Time=  5.50000E-01 Dt=  5.00000E-02 [y] snes_conv_reason:    3
  newton =   1 [      30] linear =   108 [      3059] cuts =  0 [   0]
  --> max chng: dpmx=   8.2097E+00 dtmpmx=   3.7867E-01

== TH FLOW =====================================================================
 Step     24 Time=  6.00000E-01 Dt=  5.00000E-02 [y] snes_conv_reason:    3
  newton =   1 [      31] linear =   109 [      3168] cuts =  0 [   0]
  --> max chng: dpmx=   7.0584E+00 dtmpmx=   3.5983E-01

== TH FLOW =====================================================================
 Step     25 Time=  6.50000E-01 Dt=  5.00000E-02 [y] snes_conv_reason:    3
  newton =   1 [      32] linear =   111 [      3279] cuts =  0 [   0]
  --> max chng: dpmx=   6.1936E+00 dtmpmx=   3.3419E-01

== TH FLOW =====================================================================
 Step     26 Time=  7.00000E-01 Dt=  5.00000E-02 [y] snes_conv_reason:    3
  newton =   1 [      33] linear =   115 [      3394] cuts =  0 [   0]
  --> max chng: dpmx=   5.5165E+00 dtmpmx=   3.0417E-01

== TH FLOW =====================================================================
 Step     27 Time=  7.50000E-01 Dt=  5.00000E-02 [y] snes_conv_reason:    3
  newton =   1 [      34] linear =   121 [      3515] cuts =  0 [   0]
  --> max chng: dpmx=   4.9731E+00 dtmpmx=   2.7275E-01

== TH FLOW =====================================================================
 Step     28 Time=  8.00000E-01 Dt=  5.00000E-02 [y] snes_conv_reason:    3
  newton =   1 [      35] linear =   119 [      3634] cuts =  0 [   0]
  --> max chng: dpmx=   4.5254E+00 dtmpmx=   2.5912E-01

== TH FLOW =====================================================================
 Step     29 Time=  8.50000E-01 Dt=  5.00000E-02 [y] snes_conv_reason:    3
  newton =   1 [      36] linear =   118 [      3752] cuts =  0 [   0]
  --> max chng: dpmx=   4.1553E+00 dtmpmx=   2.4953E-01

== TH FLOW =====================================================================
 Step     30 Time=  9.00000E-01 Dt=  5.00000E-02 [y] snes_conv_reason:    3
  newton =   1 [      37] linear =   116 [      3868] cuts =  0 [   0]
  --> max chng: dpmx=   3.8409E+00 dtmpmx=   2.3716E-01

== TH FLOW =====================================================================
 Step     31 Time=  9.50000E-01 Dt=  5.00000E-02 [y] snes_conv_reason:    3
  newton =   1 [      38] linear =   117 [      3985] cuts =  0 [   0]
  --> max chng: dpmx=   3.5723E+00 dtmpmx=   2.2294E-01

== TH FLOW =====================================================================
 Step     32 Time=  1.00000E+00 Dt=  5.00000E-02 [y] snes_conv_reason:    3
  newton =   1 [      39] linear =   117 [      4102] cuts =  0 [   0]
  --> max chng: dpmx=   3.3432E+00 dtmpmx=   2.0766E-01

== TH FLOW =====================================================================
 Step     33 Time=  1.05000E+00 Dt=  5.00000E-02 [y] snes_conv_reason:    3
  newton =   1 [      40] linear =   119 [      4221] cuts =  0 [   0]
  --> max chng: dpmx=   3.1413E+00 dtmpmx=   1.9632E-01

== TH FLOW =====================================================================
 Step     34 Time=  1.10000E+00 Dt=  5.00000E-02 [y] snes_conv_reason:    3
  newton =   1 [      41] linear =   119 [      4340] cuts =  0 [   0]
  --> max chng: dpmx=   2.9599E+00 dtmpmx=   1.9235E-01

== TH FLOW =====================================================================
 Step     35 Time=  1.15000E+00 Dt=  5.00000E-02 [y] snes_conv_reason:    3
  newton =   1 [      42] linear =   118 [      4458] cuts =  0 [   0]
  --> max chng: dpmx=   2.7985E+00 dtmpmx=   1.8686E-01

== TH FLOW =====================================================================
 Step     36 Time=  1.20000E+00 Dt=  5.00000E-02 [y] snes_conv_reason:    3
  newton =   1 [      43] linear =   121 [      4579] cuts =  0 [   0]
  --> max chng: dpmx=   2.6537E+00 dtmpmx=   1.8016E-01

== TH FLOW =====================================================================
 Step     37 Time=  1.25000E+00 Dt=  5.00000E-02 [y] snes_conv_reason:    3
  newton =   1 [      44] linear =   120 [      4699] cuts =  0 [   0]
  --> max chng: dpmx=   2.5224E+00 dtmpmx=   1.7254E-01

== TH FLOW =====================================================================
 Step     38 Time=  1.30000E+00 Dt=  5.00000E-02 [y] snes_conv_reason:    3
  newton =   1 [      45] linear =   114 [      4813] cuts =  0 [   0]
  --> max chng: dpmx=   2.4048E+00 dtmpmx=   1.6429E-01

== TH FLOW =====================================================================
 Step     39 Time=  1.35000E+00 Dt=  5.00000E-02 [y] snes_conv_reason:    3
  newton =   1 [      46] linear =   116 [      4929] cuts =  0 [   0]
  --> max chng: dpmx=   2.2955E+00 dtmpmx=   1.5577E-01

== TH FLOW =====================================================================
 Step     40 Time=  1.40000E+00 Dt=  5.00000E-02 [y] snes_conv_reason:    3
  newton =   1 [      47] linear =   115 [      5044] cuts =  0 [   0]
  --> max chng: dpmx=   2.1979E+00 dtmpmx=   1.5187E-01

== TH FLOW =====================================================================
 Step     41 Time=  1.45000E+00 Dt=  5.00000E-02 [y] snes_conv_reason:    3
  newton =   1 [      48] linear =   119 [      5163] cuts =  0 [   0]
  --> max chng: dpmx=   2.1080E+00 dtmpmx=   1.4946E-01

== TH FLOW =====================================================================
 Step     42 Time=  1.50000E+00 Dt=  5.00000E-02 [y] snes_conv_reason:    3
  newton =   1 [      49] linear =   119 [      5282] cuts =  0 [   0]
  --> max chng: dpmx=   2.0256E+00 dtmpmx=   1.4631E-01

== TH FLOW =====================================================================
 Step     43 Time=  1.55000E+00 Dt=  5.00000E-02 [y] snes_conv_reason:    3
  newton =   1 [      50] linear =   119 [      5401] cuts =  0 [   0]
  --> max chng: dpmx=   1.9495E+00 dtmpmx=   1.4255E-01

== TH FLOW =====================================================================
 Step     44 Time=  1.60000E+00 Dt=  5.00000E-02 [y] snes_conv_reason:    3
  newton =   1 [      51] linear =   119 [      5520] cuts =  0 [   0]
  --> max chng: dpmx=   1.8793E+00 dtmpmx=   1.3829E-01

== TH FLOW =====================================================================
 Step     45 Time=  1.65000E+00 Dt=  5.00000E-02 [y] snes_conv_reason:    3
  newton =   1 [      52] linear =   119 [      5639] cuts =  0 [   0]
  --> max chng: dpmx=   1.8143E+00 dtmpmx=   1.3362E-01

== TH FLOW =====================================================================
 Step     46 Time=  1.70000E+00 Dt=  5.00000E-02 [y] snes_conv_reason:    3
  newton =   1 [      53] linear =   119 [      5758] cuts =  0 [   0]
  --> max chng: dpmx=   1.7541E+00 dtmpmx=   1.2866E-01

== TH FLOW =====================================================================
 Step     47 Time=  1.75000E+00 Dt=  5.00000E-02 [y] snes_conv_reason:    3
  newton =   1 [      54] linear =   120 [      5878] cuts =  0 [   0]
  --> max chng: dpmx=   1.6982E+00 dtmpmx=   1.2516E-01

== TH FLOW =====================================================================
 Step     48 Time=  1.80000E+00 Dt=  5.00000E-02 [y] snes_conv_reason:    3
  newton =   1 [      55] linear =   118 [      5996] cuts =  0 [   0]
  --> max chng: dpmx=   1.6463E+00 dtmpmx=   1.2368E-01

== TH FLOW =====================================================================
 Step     49 Time=  1.85000E+00 Dt=  5.00000E-02 [y] snes_conv_reason:    3
  newton =   1 [      56] linear =   118 [      6114] cuts =  0 [   0]
  --> max chng: dpmx=   1.5965E+00 dtmpmx=   1.2177E-01

== TH FLOW =====================================================================
 Step     50 Time=  1.90000E+00 Dt=  5.00000E-02 [y] snes_conv_reason:    3
  newton =   1 [      57] linear =   120 [      6234] cuts =  0 [   0]
  --> max chng: dpmx=   1.5517E+00 dtmpmx=   1.1947E-01

== TH FLOW =====================================================================
 Step     51 Time=  1.95000E+00 Dt=  5.00000E-02 [y] snes_conv_reason:    3
  newton =   1 [      58] linear =   120 [      6354] cuts =  0 [   0]
  --> max chng: dpmx=   1.5087E+00 dtmpmx=   1.1685E-01

== TH FLOW =====================================================================
 Step     52 Time=  2.00000E+00 Dt=  5.00000E-02 [y] snes_conv_reason:    3
  newton =   1 [      59] linear =   117 [      6471] cuts =  0 [   0]
  --> max chng: dpmx=   1.4701E+00 dtmpmx=   1.1395E-01

== TH FLOW =====================================================================
 Step     53 Time=  2.05000E+00 Dt=  5.00000E-02 [y] snes_conv_reason:    3
  newton =   1 [      60] linear =   116 [      6587] cuts =  0 [   0]
  --> max chng: dpmx=   1.4335E+00 dtmpmx=   1.1119E-01

== TH FLOW =====================================================================
 Step     54 Time=  2.10000E+00 Dt=  5.00000E-02 [y] snes_conv_reason:    3
  newton =   1 [      61] linear =   117 [      6704] cuts =  0 [   0]
  --> max chng: dpmx=   1.3987E+00 dtmpmx=   1.0821E-01

== TH FLOW =====================================================================
 Step     55 Time=  2.15000E+00 Dt=  5.00000E-02 [y] snes_conv_reason:    3
  newton =   1 [      62] linear =   118 [      6822] cuts =  0 [   0]
  --> max chng: dpmx=   1.3667E+00 dtmpmx=   1.0522E-01

== TH FLOW =====================================================================
 Step     56 Time=  2.20000E+00 Dt=  5.00000E-02 [y] snes_conv_reason:    3
  newton =   1 [      63] linear =   118 [      6940] cuts =  0 [   0]
  --> max chng: dpmx=   1.3356E+00 dtmpmx=   1.0432E-01

== TH FLOW =====================================================================
 Step     57 Time=  2.25000E+00 Dt=  5.00000E-02 [y] snes_conv_reason:    3
  newton =   1 [      64] linear =   117 [      7057] cuts =  0 [   0]
  --> max chng: dpmx=   1.3065E+00 dtmpmx=   1.0315E-01

== TH FLOW =====================================================================
 Step     58 Time=  2.30000E+00 Dt=  5.00000E-02 [y] snes_conv_reason:    3
  newton =   1 [      65] linear =   119 [      7176] cuts =  0 [   0]
  --> max chng: dpmx=   1.2792E+00 dtmpmx=   1.0173E-01

== TH FLOW =====================================================================
 Step     59 Time=  2.35000E+00 Dt=  5.00000E-02 [y] snes_conv_reason:    3
  newton =   1 [      66] linear =   119 [      7295] cuts =  0 [   0]
  --> max chng: dpmx=   1.2527E+00 dtmpmx=   1.0009E-01

== TH FLOW =====================================================================
 Step     60 Time=  2.40000E+00 Dt=  5.00000E-02 [y] snes_conv_reason:    3
  newton =   1 [      67] linear =   118 [      7413] cuts =  0 [   0]
  --> max chng: dpmx=   1.2276E+00 dtmpmx=   9.8254E-02

== TH FLOW =====================================================================
 Step     61 Time=  2.45000E+00 Dt=  5.00000E-02 [y] snes_conv_reason:    3
  newton =   1 [      68] linear =   118 [      7531] cuts =  0 [   0]
  --> max chng: dpmx=   1.2040E+00 dtmpmx=   9.6251E-02

== TH FLOW =====================================================================
 Step     62 Time=  2.50000E+00 Dt=  5.00000E-02 [y] snes_conv_reason:    3
  newton =   1 [      69] linear =   113 [      7644] cuts =  0 [   0]
  --> max chng: dpmx=   1.1820E+00 dtmpmx=   9.4376E-02

== TH FLOW =====================================================================
 Step     63 Time=  2.55000E+00 Dt=  5.00000E-02 [y] snes_conv_reason:    3
  newton =   1 [      70] linear =   119 [      7763] cuts =  0 [   0]
  --> max chng: dpmx=   1.1601E+00 dtmpmx=   9.2496E-02

== TH FLOW =====================================================================
 Step     64 Time=  2.60000E+00 Dt=  5.00000E-02 [y] snes_conv_reason:    3
  newton =   1 [      71] linear =   116 [      7879] cuts =  0 [   0]
  --> max chng: dpmx=   1.1407E+00 dtmpmx=   9.0492E-02

== TH FLOW =====================================================================
 Step     65 Time=  2.65000E+00 Dt=  5.00000E-02 [y] snes_conv_reason:    3
  newton =   1 [      72] linear =   119 [      7998] cuts =  0 [   0]
  --> max chng: dpmx=   1.1225E+00 dtmpmx=   8.9455E-02

== TH FLOW =====================================================================
 Step     66 Time=  2.70000E+00 Dt=  5.00000E-02 [y] snes_conv_reason:    3
  newton =   1 [      73] linear =   119 [      8117] cuts =  0 [   0]
  --> max chng: dpmx=   1.1044E+00 dtmpmx=   8.8691E-02

== TH FLOW =====================================================================
 Step     67 Time=  2.75000E+00 Dt=  5.00000E-02 [y] snes_conv_reason:    3
  newton =   1 [      74] linear =   118 [      8235] cuts =  0 [   0]
  --> max chng: dpmx=   1.0876E+00 dtmpmx=   8.7764E-02

== TH FLOW =====================================================================
 Step     68 Time=  2.80000E+00 Dt=  5.00000E-02 [y] snes_conv_reason:    3
  newton =   1 [      75] linear =   119 [      8354] cuts =  0 [   0]
  --> max chng: dpmx=   1.0708E+00 dtmpmx=   8.6690E-02

== TH FLOW =====================================================================
 Step     69 Time=  2.85000E+00 Dt=  5.00000E-02 [y] snes_conv_reason:    3
  newton =   1 [      76] linear =   119 [      8473] cuts =  0 [   0]
  --> max chng: dpmx=   1.0553E+00 dtmpmx=   8.5481E-02

== TH FLOW =====================================================================
 Step     70 Time=  2.90000E+00 Dt=  5.00000E-02 [y] snes_conv_reason:    3
  newton =   1 [      77] linear =   120 [      8593] cuts =  0 [   0]
  --> max chng: dpmx=   1.0404E+00 dtmpmx=   8.4151E-02

== TH FLOW =====================================================================
 Step     71 Time=  2.95000E+00 Dt=  5.00000E-02 [y] snes_conv_reason:    3
  newton =   1 [      78] linear =   122 [      8715] cuts =  0 [   0]
  --> max chng: dpmx=   1.0259E+00 dtmpmx=   8.2712E-02

== TH FLOW =====================================================================
 Step     72 Time=  3.00000E+00 Dt=  5.00000E-02 [y] snes_conv_reason:    3
  newton =   1 [      79] linear =   119 [      8834] cuts =  0 [   0]
  --> max chng: dpmx=   1.0122E+00 dtmpmx=   8.1529E-02

== TH FLOW =====================================================================
 Step     73 Time=  3.05000E+00 Dt=  5.00000E-02 [y] snes_conv_reason:   11
  newton =   1 [      80] linear =   120 [      8954] cuts =  0 [   0]
  --> max chng: dpmx=   9.9913E-01 dtmpmx=   8.0265E-02

== TH FLOW =====================================================================
 Step     74 Time=  3.10000E+00 Dt=  5.00000E-02 [y] snes_conv_reason:   11
  newton =   1 [      81] linear =   120 [      9074] cuts =  0 [   0]
  --> max chng: dpmx=   9.8625E-01 dtmpmx=   7.8912E-02

== TH FLOW =====================================================================
 Step     75 Time=  3.15000E+00 Dt=  5.00000E-02 [y] snes_conv_reason:   11
  newton =   1 [      82] linear =   121 [      9195] cuts =  0 [   0]
  --> max chng: dpmx=   9.7430E-01 dtmpmx=   7.7949E-02

== TH FLOW =====================================================================
 Step     76 Time=  3.20000E+00 Dt=  5.00000E-02 [y] snes_conv_reason:   11
  newton =   1 [      83] linear =   118 [      9313] cuts =  0 [   0]
  --> max chng: dpmx=   9.6252E-01 dtmpmx=   7.7407E-02

== TH FLOW =====================================================================
 Step     77 Time=  3.25000E+00 Dt=  5.00000E-02 [y] snes_conv_reason:   11
  newton =   1 [      84] linear =   120 [      9433] cuts =  0 [   0]
  --> max chng: dpmx=   9.5133E-01 dtmpmx=   7.6757E-02

== TH FLOW =====================================================================
 Step     78 Time=  3.30000E+00 Dt=  5.00000E-02 [y] snes_conv_reason:   11
  newton =   1 [      85] linear =   120 [      9553] cuts =  0 [   0]
  --> max chng: dpmx=   9.4051E-01 dtmpmx=   7.6004E-02

== TH FLOW =====================================================================
 Step     79 Time=  3.35000E+00 Dt=  5.00000E-02 [y] snes_conv_reason:   11
  newton =   1 [      86] linear =   120 [      9673] cuts =  0 [   0]
  --> max chng: dpmx=   9.3021E-01 dtmpmx=   7.5158E-02

== TH FLOW =====================================================================
 Step     80 Time=  3.40000E+00 Dt=  5.00000E-02 [y] snes_conv_reason:   11
  newton =   1 [      87] linear =   120 [      9793] cuts =  0 [   0]
  --> max chng: dpmx=   9.2024E-01 dtmpmx=   7.4225E-02

== TH FLOW =====================================================================
 Step     81 Time=  3.45000E+00 Dt=  5.00000E-02 [y] snes_conv_reason:   11
  newton =   1 [      88] linear =   120 [      9913] cuts =  0 [   0]
  --> max chng: dpmx=   9.1073E-01 dtmpmx=   7.3213E-02

== TH FLOW =====================================================================
 Step     82 Time=  3.50000E+00 Dt=  5.00000E-02 [y] snes_conv_reason:   11
  newton =   1 [      89] linear =   121 [     10034] cuts =  0 [   0]
  --> max chng: dpmx=   9.0159E-01 dtmpmx=   7.2360E-02

== TH FLOW =====================================================================
 Step     83 Time=  3.55000E+00 Dt=  5.00000E-02 [y] snes_conv_reason:   11
  newton =   1 [      90] linear =   121 [     10155] cuts =  0 [   0]
  --> max chng: dpmx=   8.9320E-01 dtmpmx=   7.1520E-02

== TH FLOW =====================================================================
 Step     84 Time=  3.60000E+00 Dt=  5.00000E-02 [y] snes_conv_reason:   11
  newton =   1 [      91] linear =   121 [     10276] cuts =  0 [   0]
  --> max chng: dpmx=   8.8530E-01 dtmpmx=   7.0609E-02

== TH FLOW =====================================================================
 Step     85 Time=  3.65000E+00 Dt=  5.00000E-02 [y] snes_conv_reason:   11
  newton =   1 [      92] linear =   120 [     10396] cuts =  0 [   0]
  --> max chng: dpmx=   8.7798E-01 dtmpmx=   6.9634E-02

== TH FLOW =====================================================================
 Step     86 Time=  3.70000E+00 Dt=  5.00000E-02 [y] snes_conv_reason:   11
  newton =   1 [      93] linear =   121 [     10517] cuts =  0 [   0]
  --> max chng: dpmx=   8.7028E-01 dtmpmx=   6.8918E-02

== TH FLOW =====================================================================
 Step     87 Time=  3.75000E+00 Dt=  5.00000E-02 [y] snes_conv_reason:   11
  newton =   1 [      94] linear =   122 [     10639] cuts =  0 [   0]
  --> max chng: dpmx=   8.6329E-01 dtmpmx=   6.8495E-02

== TH FLOW =====================================================================
 Step     88 Time=  3.80000E+00 Dt=  5.00000E-02 [y] snes_conv_reason:   11
  newton =   1 [      95] linear =   122 [     10761] cuts =  0 [   0]
  --> max chng: dpmx=   8.5661E-01 dtmpmx=   6.7996E-02

== TH FLOW =====================================================================
 Step     89 Time=  3.85000E+00 Dt=  5.00000E-02 [y] snes_conv_reason:   11
  newton =   1 [      96] linear =   122 [     10883] cuts =  0 [   0]
  --> max chng: dpmx=   8.4994E-01 dtmpmx=   6.7426E-02

== TH FLOW =====================================================================
 Step     90 Time=  3.90000E+00 Dt=  5.00000E-02 [y] snes_conv_reason:   11
  newton =   1 [      97] linear =   114 [     10997] cuts =  0 [   0]
  --> max chng: dpmx=   8.4353E-01 dtmpmx=   6.6789E-02

== TH FLOW =====================================================================
 Step     91 Time=  3.95000E+00 Dt=  5.00000E-02 [y] snes_conv_reason:   11
  newton =   1 [      98] linear =   122 [     11119] cuts =  0 [   0]
  --> max chng: dpmx=   8.3737E-01 dtmpmx=   6.6090E-02

== TH FLOW =====================================================================
 Step     92 Time=  4.00000E+00 Dt=  5.00000E-02 [y] snes_conv_reason:   11
  newton =   1 [      99] linear =   122 [     11241] cuts =  0 [   0]
  --> max chng: dpmx=   8.3141E-01 dtmpmx=   6.5351E-02

== TH FLOW =====================================================================
 Step     93 Time=  4.05000E+00 Dt=  5.00000E-02 [y] snes_conv_reason:   11
  newton =   1 [     100] linear =   121 [     11362] cuts =  0 [   0]
  --> max chng: dpmx=   8.2584E-01 dtmpmx=   6.4808E-02

== TH FLOW =====================================================================
 Step     94 Time=  4.10000E+00 Dt=  5.00000E-02 [y] snes_conv_reason:   11
  newton =   1 [     101] linear =   115 [     11477] cuts =  0 [   0]
  --> max chng: dpmx=   8.1988E-01 dtmpmx=   6.4207E-02

== TH FLOW =====================================================================
 Step     95 Time=  4.15000E+00 Dt=  5.00000E-02 [y] snes_conv_reason:   11
  newton =   1 [     102] linear =   123 [     11600] cuts =  0 [   0]
  --> max chng: dpmx=   8.1462E-01 dtmpmx=   6.3552E-02

== TH FLOW =====================================================================
 Step     96 Time=  4.20000E+00 Dt=  5.00000E-02 [y] snes_conv_reason:   11
  newton =   1 [     103] linear =   123 [     11723] cuts =  0 [   0]
  --> max chng: dpmx=   8.0943E-01 dtmpmx=   6.2846E-02

== TH FLOW =====================================================================
 Step     97 Time=  4.25000E+00 Dt=  5.00000E-02 [y] snes_conv_reason:   11
  newton =   1 [     104] linear =   122 [     11845] cuts =  0 [   0]
  --> max chng: dpmx=   8.0442E-01 dtmpmx=   6.2094E-02

== TH FLOW =====================================================================
 Step     98 Time=  4.30000E+00 Dt=  5.00000E-02 [y] snes_conv_reason:   11
  newton =   1 [     105] linear =   123 [     11968] cuts =  0 [   0]
  --> max chng: dpmx=   7.9942E-01 dtmpmx=   6.1694E-02

== TH FLOW =====================================================================
 Step     99 Time=  4.35000E+00 Dt=  5.00000E-02 [y] snes_conv_reason:   11
  newton =   1 [     106] linear =   122 [     12090] cuts =  0 [   0]
  --> max chng: dpmx=   7.9813E-01 dtmpmx=   6.1330E-02

== TH FLOW =====================================================================
 Step    100 Time=  4.40000E+00 Dt=  5.00000E-02 [y] snes_conv_reason:   11
  newton =   1 [     107] linear =   122 [     12212] cuts =  0 [   0]
  --> max chng: dpmx=   7.9742E-01 dtmpmx=   6.0913E-02

== TH FLOW =====================================================================
 Step    101 Time=  4.45000E+00 Dt=  5.00000E-02 [y] snes_conv_reason:   11
  newton =   1 [     108] linear =   123 [     12335] cuts =  0 [   0]
  --> max chng: dpmx=   7.9662E-01 dtmpmx=   6.0444E-02

== TH FLOW =====================================================================
 Step    102 Time=  4.50000E+00 Dt=  5.00000E-02 [y] snes_conv_reason:   11
  newton =   1 [     109] linear =   123 [     12458] cuts =  0 [   0]
  --> max chng: dpmx=   7.9541E-01 dtmpmx=   5.9928E-02

== TH FLOW =====================================================================
 Step    103 Time=  4.55000E+00 Dt=  5.00000E-02 [y] snes_conv_reason:   11
  newton =   1 [     110] linear =   107 [     12565] cuts =  0 [   0]
  --> max chng: dpmx=   7.9527E-01 dtmpmx=   5.9380E-02

== TH FLOW =====================================================================
 Step    104 Time=  4.60000E+00 Dt=  5.00000E-02 [y] snes_conv_reason:   11
  newton =   1 [     111] linear =   109 [     12674] cuts =  0 [   0]
  --> max chng: dpmx=   7.9604E-01 dtmpmx=   5.9001E-02

== TH FLOW =====================================================================
 Step    105 Time=  4.65000E+00 Dt=  5.00000E-02 [y] snes_conv_reason:   11
  newton =   1 [     112] linear =   118 [     12792] cuts =  0 [   0]
  --> max chng: dpmx=   7.9644E-01 dtmpmx=   5.8576E-02

== TH FLOW =====================================================================
 Step    106 Time=  4.70000E+00 Dt=  5.00000E-02 [y] snes_conv_reason:   11
  newton =   1 [     113] linear =   119 [     12911] cuts =  0 [   0]
  --> max chng: dpmx=   7.9606E-01 dtmpmx=   5.8108E-02

== TH FLOW =====================================================================
 Step    107 Time=  4.75000E+00 Dt=  5.00000E-02 [y] snes_conv_reason:   11
  newton =   1 [     114] linear =   121 [     13032] cuts =  0 [   0]
  --> max chng: dpmx=   7.9573E-01 dtmpmx=   5.7598E-02

== TH FLOW =====================================================================
 Step    108 Time=  4.80000E+00 Dt=  5.00000E-02 [y] snes_conv_reason:   11
  newton =   1 [     115] linear =   118 [     13150] cuts =  0 [   0]
  --> max chng: dpmx=   7.9518E-01 dtmpmx=   5.7050E-02

== TH FLOW =====================================================================
 Step    109 Time=  4.85000E+00 Dt=  5.00000E-02 [y] snes_conv_reason:   11
  newton =   1 [     116] linear =   122 [     13272] cuts =  0 [   0]
  --> max chng: dpmx=   7.9502E-01 dtmpmx=   5.6466E-02

== TH FLOW =====================================================================
 Step    110 Time=  4.90000E+00 Dt=  5.00000E-02 [y] snes_conv_reason:   11
  newton =   1 [     117] linear =   121 [     13393] cuts =  0 [   0]
  --> max chng: dpmx=   7.9405E-01 dtmpmx=   5.6072E-02

== TH FLOW =====================================================================
 Step    111 Time=  4.95000E+00 Dt=  5.00000E-02 [y] snes_conv_reason:   11
  newton =   1 [     118] linear =   120 [     13513] cuts =  0 [   0]
  --> max chng: dpmx=   7.9271E-01 dtmpmx=   5.5775E-02

== TH FLOW =====================================================================
 Step    112 Time=  5.00000E+00 Dt=  5.00000E-02 [y] snes_conv_reason:   11
  newton =   1 [     119] linear =   121 [     13634] cuts =  0 [   0]
  --> max chng: dpmx=   7.9410E-01 dtmpmx=   5.5437E-02

== TH FLOW =====================================================================
 Step    113 Time=  5.05000E+00 Dt=  5.00000E-02 [y] snes_conv_reason:   11
  newton =   1 [     120] linear =   121 [     13755] cuts =  0 [   0]
  --> max chng: dpmx=   7.9389E-01 dtmpmx=   5.5061E-02

== TH FLOW =====================================================================
 Step    114 Time=  5.10000E+00 Dt=  5.00000E-02 [y] snes_conv_reason:   11
  newton =   1 [     121] linear =   122 [     13877] cuts =  0 [   0]
  --> max chng: dpmx=   7.9394E-01 dtmpmx=   5.4648E-02

== TH FLOW =====================================================================
 Step    115 Time=  5.15000E+00 Dt=  5.00000E-02 [y] snes_conv_reason:   11
  newton =   1 [     122] linear =   121 [     13998] cuts =  0 [   0]
  --> max chng: dpmx=   7.9400E-01 dtmpmx=   5.4349E-02

== TH FLOW =====================================================================
 Step    116 Time=  5.20000E+00 Dt=  5.00000E-02 [y] snes_conv_reason:   11
  newton =   1 [     123] linear =   121 [     14119] cuts =  0 [   0]
  --> max chng: dpmx=   7.9379E-01 dtmpmx=   5.4056E-02

== TH FLOW =====================================================================
 Step    117 Time=  5.25000E+00 Dt=  5.00000E-02 [y] snes_conv_reason:   11
  newton =   1 [     124] linear =   119 [     14238] cuts =  0 [   0]
  --> max chng: dpmx=   7.9369E-01 dtmpmx=   5.3726E-02

== TH FLOW =====================================================================
 Step    118 Time=  5.30000E+00 Dt=  5.00000E-02 [y] snes_conv_reason:   11
  newton =   1 [     125] linear =   118 [     14356] cuts =  0 [   0]
  --> max chng: dpmx=   7.9298E-01 dtmpmx=   5.3361E-02

== TH FLOW =====================================================================
 Step    119 Time=  5.35000E+00 Dt=  5.00000E-02 [y] snes_conv_reason:   11
  newton =   1 [     126] linear =   117 [     14473] cuts =  0 [   0]
  --> max chng: dpmx=   7.9207E-01 dtmpmx=   5.2964E-02

== TH FLOW =====================================================================
 Step    120 Time=  5.40000E+00 Dt=  5.00000E-02 [y] snes_conv_reason:   11
  newton =   1 [     127] linear =   117 [     14590] cuts =  0 [   0]
  --> max chng: dpmx=   7.9146E-01 dtmpmx=   5.2536E-02

== TH FLOW =====================================================================
 Step    121 Time=  5.45000E+00 Dt=  5.00000E-02 [y] snes_conv_reason:   11
  newton =   1 [     128] linear =   124 [     14714] cuts =  0 [   0]
  --> max chng: dpmx=   7.9228E-01 dtmpmx=   5.2079E-02

== TH FLOW =====================================================================
 Step    122 Time=  5.50000E+00 Dt=  5.00000E-02 [y] snes_conv_reason:   11
  newton =   1 [     129] linear =   122 [     14836] cuts =  0 [   0]
  --> max chng: dpmx=   7.9253E-01 dtmpmx=   5.1676E-02

== TH FLOW =====================================================================
 Step    123 Time=  5.55000E+00 Dt=  5.00000E-02 [y] snes_conv_reason:   11
  newton =   1 [     130] linear =   122 [     14958] cuts =  0 [   0]
  --> max chng: dpmx=   7.9239E-01 dtmpmx=   5.1435E-02

== TH FLOW =====================================================================
 Step    124 Time=  5.60000E+00 Dt=  5.00000E-02 [y] snes_conv_reason:   11
  newton =   1 [     131] linear =   121 [     15079] cuts =  0 [   0]
  --> max chng: dpmx=   7.9264E-01 dtmpmx=   5.1163E-02

== TH FLOW =====================================================================
 Step    125 Time=  5.65000E+00 Dt=  5.00000E-02 [y] snes_conv_reason:   11
  newton =   1 [     132] linear =   122 [     15201] cuts =  0 [   0]
  --> max chng: dpmx=   7.9225E-01 dtmpmx=   5.0860E-02

== TH FLOW =====================================================================
 Step    126 Time=  5.70000E+00 Dt=  5.00000E-02 [y] snes_conv_reason:   11
  newton =   1 [     133] linear =   121 [     15322] cuts =  0 [   0]
  --> max chng: dpmx=   7.9196E-01 dtmpmx=   5.0529E-02

== TH FLOW =====================================================================
 Step    127 Time=  5.75000E+00 Dt=  5.00000E-02 [y] snes_conv_reason:   11
  newton =   1 [     134] linear =   121 [     15443] cuts =  0 [   0]
  --> max chng: dpmx=   7.9182E-01 dtmpmx=   5.0308E-02

== TH FLOW =====================================================================
 Step    128 Time=  5.80000E+00 Dt=  5.00000E-02 [y] snes_conv_reason:   11
  newton =   1 [     135] linear =   122 [     15565] cuts =  0 [   0]
  --> max chng: dpmx=   7.9120E-01 dtmpmx=   5.0082E-02

== TH FLOW =====================================================================
 Step    129 Time=  5.85000E+00 Dt=  5.00000E-02 [y] snes_conv_reason:   11
  newton =   1 [     136] linear =   122 [     15687] cuts =  0 [   0]
  --> max chng: dpmx=   7.9050E-01 dtmpmx=   4.9828E-02

== TH FLOW =====================================================================
 Step    130 Time=  5.90000E+00 Dt=  5.00000E-02 [y] snes_conv_reason:   11
  newton =   1 [     137] linear =   122 [     15809] cuts =  0 [   0]
  --> max chng: dpmx=   7.9105E-01 dtmpmx=   4.9545E-02

== TH FLOW =====================================================================
 Step    131 Time=  5.95000E+00 Dt=  5.00000E-02 [y] snes_conv_reason:   11
  newton =   1 [     138] linear =   122 [     15931] cuts =  0 [   0]
  --> max chng: dpmx=   7.9115E-01 dtmpmx=   4.9235E-02

== TH FLOW =====================================================================
 Step    132 Time=  6.00000E+00 Dt=  5.00000E-02 [y] snes_conv_reason:   11
  newton =   1 [     139] linear =   121 [     16052] cuts =  0 [   0]
  --> max chng: dpmx=   7.9158E-01 dtmpmx=   4.8899E-02

== TH FLOW =====================================================================
 Step    133 Time=  6.05000E+00 Dt=  5.00000E-02 [y] snes_conv_reason:   11
  newton =   1 [     140] linear =   122 [     16174] cuts =  0 [   0]
  --> max chng: dpmx=   7.9108E-01 dtmpmx=   4.8538E-02

== TH FLOW =====================================================================
 Step    134 Time=  6.10000E+00 Dt=  5.00000E-02 [y] snes_conv_reason:   11
  newton =   1 [     141] linear =   121 [     16295] cuts =  0 [   0]
  --> max chng: dpmx=   7.9156E-01 dtmpmx=   4.8184E-02

== TH FLOW =====================================================================
 Step    135 Time=  6.15000E+00 Dt=  5.00000E-02 [y] snes_conv_reason:   11
  newton =   1 [     142] linear =   121 [     16416] cuts =  0 [   0]
  --> max chng: dpmx=   7.9082E-01 dtmpmx=   4.8006E-02

== TH FLOW =====================================================================
 Step    136 Time=  6.20000E+00 Dt=  5.00000E-02 [y] snes_conv_reason:   11
  newton =   1 [     143] linear =   122 [     16538] cuts =  0 [   0]
  --> max chng: dpmx=   7.9094E-01 dtmpmx=   4.7802E-02

== TH FLOW =====================================================================
 Step    137 Time=  6.25000E+00 Dt=  5.00000E-02 [y] snes_conv_reason:   11
  newton =   1 [     144] linear =   122 [     16660] cuts =  0 [   0]
  --> max chng: dpmx=   7.9022E-01 dtmpmx=   4.7573E-02

== TH FLOW =====================================================================
 Step    138 Time=  6.30000E+00 Dt=  5.00000E-02 [y] snes_conv_reason:   11
  newton =   1 [     145] linear =   122 [     16782] cuts =  0 [   0]
  --> max chng: dpmx=   7.8941E-01 dtmpmx=   4.7319E-02

== TH FLOW =====================================================================
 Step    139 Time=  6.35000E+00 Dt=  5.00000E-02 [y] snes_conv_reason:   11
  newton =   1 [     146] linear =   124 [     16906] cuts =  0 [   0]
  --> max chng: dpmx=   7.9033E-01 dtmpmx=   4.7041E-02

== TH FLOW =====================================================================
 Step    140 Time=  6.40000E+00 Dt=  5.00000E-02 [y] snes_conv_reason:   11
  newton =   1 [     147] linear =   123 [     17029] cuts =  0 [   0]
  --> max chng: dpmx=   7.9036E-01 dtmpmx=   4.6806E-02

== TH FLOW =====================================================================
 Step    141 Time=  6.45000E+00 Dt=  5.00000E-02 [y] snes_conv_reason:   11
  newton =   1 [     148] linear =   121 [     17150] cuts =  0 [   0]
  --> max chng: dpmx=   7.9080E-01 dtmpmx=   4.6610E-02

== TH FLOW =====================================================================
 Step    142 Time=  6.50000E+00 Dt=  5.00000E-02 [y] snes_conv_reason:   11
  newton =   1 [     149] linear =   124 [     17274] cuts =  0 [   0]
  --> max chng: dpmx=   7.9035E-01 dtmpmx=   4.6391E-02

== TH FLOW =====================================================================
 Step    143 Time=  6.55000E+00 Dt=  5.00000E-02 [y] snes_conv_reason:   11
  newton =   1 [     150] linear =   124 [     17398] cuts =  0 [   0]
  --> max chng: dpmx=   7.9061E-01 dtmpmx=   4.6149E-02

== TH FLOW =====================================================================
 Step    144 Time=  6.60000E+00 Dt=  5.00000E-02 [y] snes_conv_reason:   11
  newton =   1 [     151] linear =   124 [     17522] cuts =  0 [   0]
  --> max chng: dpmx=   7.9033E-01 dtmpmx=   4.5885E-02

== TH FLOW =====================================================================
 Step    145 Time=  6.65000E+00 Dt=  5.00000E-02 [y] snes_conv_reason:   11
  newton =   1 [     152] linear =   123 [     17645] cuts =  0 [   0]
  --> max chng: dpmx=   7.8998E-01 dtmpmx=   4.5600E-02

== TH FLOW =====================================================================
 Step    146 Time=  6.70000E+00 Dt=  5.00000E-02 [y] snes_conv_reason:   11
  newton =   1 [     153] linear =   120 [     17765] cuts =  0 [   0]
  --> max chng: dpmx=   7.9011E-01 dtmpmx=   4.5295E-02

== TH FLOW =====================================================================
 Step    147 Time=  6.75000E+00 Dt=  5.00000E-02 [y] snes_conv_reason:   11
  newton =   1 [     154] linear =   121 [     17886] cuts =  0 [   0]
  --> max chng: dpmx=   7.8902E-01 dtmpmx=   4.5127E-02

== TH FLOW =====================================================================
 Step    148 Time=  6.80000E+00 Dt=  5.00000E-02 [y] snes_conv_reason:   11
  newton =   1 [     155] linear =   120 [     18006] cuts =  0 [   0]
  --> max chng: dpmx=   7.8922E-01 dtmpmx=   4.4976E-02

== TH FLOW =====================================================================
 Step    149 Time=  6.85000E+00 Dt=  5.00000E-02 [y] snes_conv_reason:   11
  newton =   1 [     156] linear =   119 [     18125] cuts =  0 [   0]
  --> max chng: dpmx=   7.8975E-01 dtmpmx=   4.4803E-02

== TH FLOW =====================================================================
 Step    150 Time=  6.90000E+00 Dt=  5.00000E-02 [y] snes_conv_reason:   11
  newton =   1 [     157] linear =   124 [     18249] cuts =  0 [   0]
  --> max chng: dpmx=   7.8987E-01 dtmpmx=   4.4609E-02

== TH FLOW =====================================================================
 Step    151 Time=  6.95000E+00 Dt=  5.00000E-02 [y] snes_conv_reason:   11
  newton =   1 [     158] linear =   124 [     18373] cuts =  0 [   0]
  --> max chng: dpmx=   7.8993E-01 dtmpmx=   4.4395E-02

== TH FLOW =====================================================================
 Step    152 Time=  7.00000E+00 Dt=  5.00000E-02 [y] snes_conv_reason:   11
  newton =   1 [     159] linear =   125 [     18498] cuts =  0 [   0]
  --> max chng: dpmx=   7.8981E-01 dtmpmx=   4.4161E-02

== TH FLOW =====================================================================
 Step    153 Time=  7.05000E+00 Dt=  5.00000E-02 [y] snes_conv_reason:   11
  newton =   1 [     160] linear =   124 [     18622] cuts =  0 [   0]
  --> max chng: dpmx=   7.8984E-01 dtmpmx=   4.3908E-02

== TH FLOW =====================================================================
 Step    154 Time=  7.10000E+00 Dt=  5.00000E-02 [y] snes_conv_reason:   11
  newton =   1 [     161] linear =   123 [     18745] cuts =  0 [   0]
  --> max chng: dpmx=   7.8947E-01 dtmpmx=   4.3728E-02

== TH FLOW =====================================================================
 Step    155 Time=  7.15000E+00 Dt=  5.00000E-02 [y] snes_conv_reason:   11
  newton =   1 [     162] linear =   123 [     18868] cuts =  0 [   0]
  --> max chng: dpmx=   7.8940E-01 dtmpmx=   4.3540E-02

== TH FLOW =====================================================================
 Step    156 Time=  7.20000E+00 Dt=  5.00000E-02 [y] snes_conv_reason:   11
  newton =   1 [     163] linear =   124 [     18992] cuts =  0 [   0]
  --> max chng: dpmx=   7.8869E-01 dtmpmx=   4.3333E-02

== TH FLOW =====================================================================
 Step    157 Time=  7.25000E+00 Dt=  5.00000E-02 [y] snes_conv_reason:   11
  newton =   1 [     164] linear =   124 [     19116] cuts =  0 [   0]
  --> max chng: dpmx=   7.8868E-01 dtmpmx=   4.3107E-02

== TH FLOW =====================================================================
 Step    158 Time=  7.30000E+00 Dt=  5.00000E-02 [y] snes_conv_reason:   11
  newton =   1 [     165] linear =   122 [     19238] cuts =  0 [   0]
  --> max chng: dpmx=   7.8883E-01 dtmpmx=   4.2864E-02

== TH FLOW =====================================================================
 Step    159 Time=  7.35000E+00 Dt=  5.00000E-02 [y] snes_conv_reason:   11
  newton =   1 [     166] linear =   122 [     19360] cuts =  0 [   0]
  --> max chng: dpmx=   7.8962E-01 dtmpmx=   4.2664E-02

== TH FLOW =====================================================================
 Step    160 Time=  7.40000E+00 Dt=  5.00000E-02 [y] snes_conv_reason:   11
  newton =   1 [     167] linear =   123 [     19483] cuts =  0 [   0]
  --> max chng: dpmx=   7.8926E-01 dtmpmx=   4.2554E-02

== TH FLOW =====================================================================
 Step    161 Time=  7.45000E+00 Dt=  5.00000E-02 [y] snes_conv_reason:   11
  newton =   1 [     168] linear =   124 [     19607] cuts =  0 [   0]
  --> max chng: dpmx=   7.8929E-01 dtmpmx=   4.2426E-02

== TH FLOW =====================================================================
 Step    162 Time=  7.50000E+00 Dt=  5.00000E-02 [y] snes_conv_reason:   11
  newton =   1 [     169] linear =   121 [     19728] cuts =  0 [   0]
  --> max chng: dpmx=   7.8940E-01 dtmpmx=   4.2279E-02

== TH FLOW =====================================================================
 Step    163 Time=  7.55000E+00 Dt=  5.00000E-02 [y] snes_conv_reason:   11
  newton =   1 [     170] linear =   124 [     19852] cuts =  0 [   0]
  --> max chng: dpmx=   7.8892E-01 dtmpmx=   4.2115E-02

== TH FLOW =====================================================================
 Step    164 Time=  7.60000E+00 Dt=  5.00000E-02 [y] snes_conv_reason:   11
  newton =   1 [     171] linear =   119 [     19971] cuts =  0 [   0]
  --> max chng: dpmx=   7.8882E-01 dtmpmx=   4.1933E-02

== TH FLOW =====================================================================
 Step    165 Time=  7.65000E+00 Dt=  5.00000E-02 [y] snes_conv_reason:   11
  newton =   1 [     172] linear =   122 [     20093] cuts =  0 [   0]
  --> max chng: dpmx=   7.8875E-01 dtmpmx=   4.1734E-02

== TH FLOW =====================================================================
 Step    166 Time=  7.70000E+00 Dt=  5.00000E-02 [y] snes_conv_reason:   11
  newton =   1 [     173] linear =   122 [     20215] cuts =  0 [   0]
  --> max chng: dpmx=   7.8810E-01 dtmpmx=   4.1520E-02

== TH FLOW =====================================================================
 Step    167 Time=  7.75000E+00 Dt=  5.00000E-02 [y] snes_conv_reason:   11
  newton =   1 [     174] linear =   121 [     20336] cuts =  0 [   0]
  --> max chng: dpmx=   7.8848E-01 dtmpmx=   4.1294E-02

== TH FLOW =====================================================================
 Step    168 Time=  7.80000E+00 Dt=  5.00000E-02 [y] snes_conv_reason:   11
  newton =   1 [     175] linear =   121 [     20457] cuts =  0 [   0]
  --> max chng: dpmx=   7.8876E-01 dtmpmx=   4.1132E-02

== TH FLOW =====================================================================
 Step    169 Time=  7.85000E+00 Dt=  5.00000E-02 [y] snes_conv_reason:   11
  newton =   1 [     176] linear =   122 [     20579] cuts =  0 [   0]
  --> max chng: dpmx=   7.8840E-01 dtmpmx=   4.0954E-02

== TH FLOW =====================================================================
 Step    170 Time=  7.90000E+00 Dt=  5.00000E-02 [y] snes_conv_reason:   11
  newton =   1 [     177] linear =   123 [     20702] cuts =  0 [   0]
  --> max chng: dpmx=   7.8884E-01 dtmpmx=   4.0760E-02

== TH FLOW =====================================================================
 Step    171 Time=  7.95000E+00 Dt=  5.00000E-02 [y] snes_conv_reason:   11
  newton =   1 [     178] linear =   123 [     20825] cuts =  0 [   0]
  --> max chng: dpmx=   7.8896E-01 dtmpmx=   4.0573E-02

== TH FLOW =====================================================================
 Step    172 Time=  8.00000E+00 Dt=  5.00000E-02 [y] snes_conv_reason:   11
  newton =   1 [     179] linear =   119 [     20944] cuts =  0 [   0]
  --> max chng: dpmx=   7.8898E-01 dtmpmx=   4.0472E-02

== TH FLOW =====================================================================
 Step    173 Time=  8.05000E+00 Dt=  5.00000E-02 [y] snes_conv_reason:   11
  newton =   1 [     180] linear =   119 [     21063] cuts =  0 [   0]
  --> max chng: dpmx=   7.8854E-01 dtmpmx=   4.0355E-02

== TH FLOW =====================================================================
 Step    174 Time=  8.10000E+00 Dt=  5.00000E-02 [y] snes_conv_reason:   11
  newton =   1 [     181] linear =   124 [     21187] cuts =  0 [   0]
  --> max chng: dpmx=   7.8810E-01 dtmpmx=   4.0245E-02

== TH FLOW =====================================================================
 Step    175 Time=  8.15000E+00 Dt=  5.00000E-02 [y] snes_conv_reason:   11
  newton =   1 [     182] linear =   124 [     21311] cuts =  0 [   0]
  --> max chng: dpmx=   7.8797E-01 dtmpmx=   4.0120E-02

== TH FLOW =====================================================================
 Step    176 Time=  8.20000E+00 Dt=  5.00000E-02 [y] snes_conv_reason:   11
  newton =   1 [     183] linear =   124 [     21435] cuts =  0 [   0]
  --> max chng: dpmx=   7.8790E-01 dtmpmx=   3.9980E-02

== TH FLOW =====================================================================
 Step    177 Time=  8.25000E+00 Dt=  5.00000E-02 [y] snes_conv_reason:   11
  newton =   1 [     184] linear =   124 [     21559] cuts =  0 [   0]
  --> max chng: dpmx=   7.8819E-01 dtmpmx=   3.9825E-02

== TH FLOW =====================================================================
 Step    178 Time=  8.30000E+00 Dt=  5.00000E-02 [y] snes_conv_reason:   11
  newton =   1 [     185] linear =   124 [     21683] cuts =  0 [   0]
  --> max chng: dpmx=   7.8834E-01 dtmpmx=   3.9655E-02

== TH FLOW =====================================================================
 Step    179 Time=  8.35000E+00 Dt=  5.00000E-02 [y] snes_conv_reason:   11
  newton =   1 [     186] linear =   123 [     21806] cuts =  0 [   0]
  --> max chng: dpmx=   7.8831E-01 dtmpmx=   3.9471E-02

== TH FLOW =====================================================================
 Step    180 Time=  8.40000E+00 Dt=  5.00000E-02 [y] snes_conv_reason:   11
  newton =   1 [     187] linear =   122 [     21928] cuts =  0 [   0]
  --> max chng: dpmx=   7.8863E-01 dtmpmx=   3.9274E-02

== TH FLOW =====================================================================
 Step    181 Time=  8.45000E+00 Dt=  5.00000E-02 [y] snes_conv_reason:   11
  newton =   1 [     188] linear =   121 [     22049] cuts =  0 [   0]
  --> max chng: dpmx=   7.8831E-01 dtmpmx=   3.9066E-02

== TH FLOW =====================================================================
 Step    182 Time=  8.50000E+00 Dt=  5.00000E-02 [y] snes_conv_reason:   11
  newton =   1 [     189] linear =   121 [     22170] cuts =  0 [   0]
  --> max chng: dpmx=   7.8826E-01 dtmpmx=   3.8912E-02

== TH FLOW =====================================================================
 Step    183 Time=  8.55000E+00 Dt=  5.00000E-02 [y] snes_conv_reason:   11
  newton =   1 [     190] linear =   121 [     22291] cuts =  0 [   0]
  --> max chng: dpmx=   7.8800E-01 dtmpmx=   3.8744E-02

== TH FLOW =====================================================================
 Step    184 Time=  8.60000E+00 Dt=  5.00000E-02 [y] snes_conv_reason:   11
  newton =   1 [     191] linear =   123 [     22414] cuts =  0 [   0]
  --> max chng: dpmx=   7.8771E-01 dtmpmx=   3.8653E-02

== TH FLOW =====================================================================
 Step    185 Time=  8.65000E+00 Dt=  5.00000E-02 [y] snes_conv_reason:   11
  newton =   1 [     192] linear =   121 [     22535] cuts =  0 [   0]
  --> max chng: dpmx=   7.8758E-01 dtmpmx=   3.8568E-02

== TH FLOW =====================================================================
 Step    186 Time=  8.70000E+00 Dt=  5.00000E-02 [y] snes_conv_reason:   11
  newton =   1 [     193] linear =   121 [     22656] cuts =  0 [   0]
  --> max chng: dpmx=   7.8742E-01 dtmpmx=   3.8469E-02

== TH FLOW =====================================================================
 Step    187 Time=  8.75000E+00 Dt=  5.00000E-02 [y] snes_conv_reason:   11
  newton =   1 [     194] linear =   122 [     22778] cuts =  0 [   0]
  --> max chng: dpmx=   7.8827E-01 dtmpmx=   3.8356E-02

== TH FLOW =====================================================================
 Step    188 Time=  8.80000E+00 Dt=  5.00000E-02 [y] snes_conv_reason:   11
  newton =   1 [     195] linear =   122 [     22900] cuts =  0 [   0]
  --> max chng: dpmx=   7.8803E-01 dtmpmx=   3.8247E-02

== TH FLOW =====================================================================
 Step    189 Time=  8.85000E+00 Dt=  5.00000E-02 [y] snes_conv_reason:   11
  newton =   1 [     196] linear =   122 [     23022] cuts =  0 [   0]
  --> max chng: dpmx=   7.8798E-01 dtmpmx=   3.8127E-02

== TH FLOW =====================================================================
 Step    190 Time=  8.90000E+00 Dt=  5.00000E-02 [y] snes_conv_reason:   11
  newton =   1 [     197] linear =   123 [     23145] cuts =  0 [   0]
  --> max chng: dpmx=   7.8810E-01 dtmpmx=   3.7994E-02

== TH FLOW =====================================================================
 Step    191 Time=  8.95000E+00 Dt=  5.00000E-02 [y] snes_conv_reason:   11
  newton =   1 [     198] linear =   125 [     23270] cuts =  0 [   0]
  --> max chng: dpmx=   7.8806E-01 dtmpmx=   3.7848E-02

== TH FLOW =====================================================================
 Step    192 Time=  9.00000E+00 Dt=  5.00000E-02 [y] snes_conv_reason:   11
  newton =   1 [     199] linear =   123 [     23393] cuts =  0 [   0]
  --> max chng: dpmx=   7.8787E-01 dtmpmx=   3.7690E-02

== TH FLOW =====================================================================
 Step    193 Time=  9.05000E+00 Dt=  5.00000E-02 [y] snes_conv_reason:   11
  newton =   1 [     200] linear =   123 [     23516] cuts =  0 [   0]
  --> max chng: dpmx=   7.8769E-01 dtmpmx=   3.7519E-02

== TH FLOW =====================================================================
 Step    194 Time=  9.10000E+00 Dt=  5.00000E-02 [y] snes_conv_reason:   11
  newton =   1 [     201] linear =   122 [     23638] cuts =  0 [   0]
  --> max chng: dpmx=   7.8741E-01 dtmpmx=   3.7337E-02

== TH FLOW =====================================================================
 Step    195 Time=  9.15000E+00 Dt=  5.00000E-02 [y] snes_conv_reason:   11
  newton =   1 [     202] linear =   116 [     23754] cuts =  0 [   0]
  --> max chng: dpmx=   7.8720E-01 dtmpmx=   3.7143E-02

== TH FLOW =====================================================================
 Step    196 Time=  9.20000E+00 Dt=  5.00000E-02 [y] snes_conv_reason:   11
  newton =   1 [     203] linear =   118 [     23872] cuts =  0 [   0]
  --> max chng: dpmx=   7.8779E-01 dtmpmx=   3.7026E-02

== TH FLOW =====================================================================
 Step    197 Time=  9.25000E+00 Dt=  5.00000E-02 [y] snes_conv_reason:   11
  newton =   1 [     204] linear =   117 [     23989] cuts =  0 [   0]
  --> max chng: dpmx=   7.8752E-01 dtmpmx=   3.6967E-02

== TH FLOW =====================================================================
 Step    198 Time=  9.30000E+00 Dt=  5.00000E-02 [y] snes_conv_reason:   11
  newton =   1 [     205] linear =   122 [     24111] cuts =  0 [   0]
  --> max chng: dpmx=   7.8789E-01 dtmpmx=   3.6896E-02

== TH FLOW =====================================================================
 Step    199 Time=  9.35000E+00 Dt=  5.00000E-02 [y] snes_conv_reason:   11
  newton =   1 [     206] linear =   122 [     24233] cuts =  0 [   0]
  --> max chng: dpmx=   7.8776E-01 dtmpmx=   3.6811E-02

== TH FLOW =====================================================================
 Step    200 Time=  9.40000E+00 Dt=  5.00000E-02 [y] snes_conv_reason:   11
  newton =   1 [     207] linear =   122 [     24355] cuts =  0 [   0]
  --> max chng: dpmx=   7.8766E-01 dtmpmx=   3.6715E-02

== TH FLOW =====================================================================
 Step    201 Time=  9.45000E+00 Dt=  5.00000E-02 [y] snes_conv_reason:   11
  newton =   1 [     208] linear =   115 [     24470] cuts =  0 [   0]
  --> max chng: dpmx=   7.8789E-01 dtmpmx=   3.6607E-02

== TH FLOW =====================================================================
 Step    202 Time=  9.50000E+00 Dt=  5.00000E-02 [y] snes_conv_reason:   11
  newton =   1 [     209] linear =   129 [     24599] cuts =  0 [   0]
  --> max chng: dpmx=   7.8771E-01 dtmpmx=   3.6499E-02

== TH FLOW =====================================================================
 Step    203 Time=  9.55000E+00 Dt=  5.00000E-02 [y] snes_conv_reason:   11
  newton =   1 [     210] linear =   122 [     24721] cuts =  0 [   0]
  --> max chng: dpmx=   7.8762E-01 dtmpmx=   3.6385E-02

== TH FLOW =====================================================================
 Step    204 Time=  9.60000E+00 Dt=  5.00000E-02 [y] snes_conv_reason:   11
  newton =   1 [     211] linear =   122 [     24843] cuts =  0 [   0]
  --> max chng: dpmx=   7.8706E-01 dtmpmx=   3.6259E-02

== TH FLOW =====================================================================
 Step    205 Time=  9.65000E+00 Dt=  5.00000E-02 [y] snes_conv_reason:   11
  newton =   1 [     212] linear =   121 [     24964] cuts =  0 [   0]
  --> max chng: dpmx=   7.8760E-01 dtmpmx=   3.6121E-02

== TH FLOW =====================================================================
 Step    206 Time=  9.70000E+00 Dt=  5.00000E-02 [y] snes_conv_reason:   11
  newton =   1 [     213] linear =   121 [     25085] cuts =  0 [   0]
  --> max chng: dpmx=   7.8741E-01 dtmpmx=   3.5974E-02

== TH FLOW =====================================================================
 Step    207 Time=  9.75000E+00 Dt=  5.00000E-02 [y] snes_conv_reason:   11
  newton =   1 [     214] linear =   121 [     25206] cuts =  0 [   0]
  --> max chng: dpmx=   7.8779E-01 dtmpmx=   3.5815E-02

== TH FLOW =====================================================================
 Step    208 Time=  9.80000E+00 Dt=  5.00000E-02 [y] snes_conv_reason:   11
  newton =   1 [     215] linear =   121 [     25327] cuts =  0 [   0]
  --> max chng: dpmx=   7.8776E-01 dtmpmx=   3.5646E-02

== TH FLOW =====================================================================
 Step    209 Time=  9.85000E+00 Dt=  5.00000E-02 [y] snes_conv_reason:   11
  newton =   1 [     216] linear =   121 [     25448] cuts =  0 [   0]
  --> max chng: dpmx=   7.8800E-01 dtmpmx=   3.5521E-02

== TH FLOW =====================================================================
 Step    210 Time=  9.90000E+00 Dt=  5.00000E-02 [y] snes_conv_reason:   11
  newton =   1 [     217] linear =   123 [     25571] cuts =  0 [   0]
  --> max chng: dpmx=   7.8766E-01 dtmpmx=   3.5472E-02

== TH FLOW =====================================================================
 Step    211 Time=  9.95000E+00 Dt=  5.00000E-02 [y] snes_conv_reason:   11
  newton =   1 [     218] linear =   121 [     25692] cuts =  0 [   0]
  --> max chng: dpmx=   7.8792E-01 dtmpmx=   3.5411E-02

== TH FLOW =====================================================================
 Step    212 Time=  1.00000E+01 Dt=  5.00000E-02 [y] snes_conv_reason:   11
  newton =   1 [     219] linear =   118 [     25810] cuts =  0 [   0]
  --> max chng: dpmx=   7.8761E-01 dtmpmx=   3.5340E-02

== TH FLOW =====================================================================
 Step    213 Time=  1.00500E+01 Dt=  5.00000E-02 [y] snes_conv_reason:   11
  newton =   1 [     220] linear =   121 [     25931] cuts =  0 [   0]
  --> max chng: dpmx=   7.8739E-01 dtmpmx=   3.5257E-02

== TH FLOW =====================================================================
 Step    214 Time=  1.01000E+01 Dt=  5.00000E-02 [y] snes_conv_reason:   11
  newton =   1 [     221] linear =   122 [     26053] cuts =  0 [   0]
  --> max chng: dpmx=   7.8751E-01 dtmpmx=   3.5164E-02

== TH FLOW =====================================================================
 Step    215 Time=  1.01500E+01 Dt=  5.00000E-02 [y] snes_conv_reason:   11
  newton =   1 [     222] linear =   118 [     26171] cuts =  0 [   0]
  --> max chng: dpmx=   7.8726E-01 dtmpmx=   3.5060E-02

== TH FLOW =====================================================================
 Step    216 Time=  1.02000E+01 Dt=  5.00000E-02 [y] snes_conv_reason:   11
  newton =   1 [     223] linear =   125 [     26296] cuts =  0 [   0]
  --> max chng: dpmx=   7.8813E-01 dtmpmx=   3.4956E-02

== TH FLOW =====================================================================
 Step    217 Time=  1.02500E+01 Dt=  5.00000E-02 [y] snes_conv_reason:   11
  newton =   1 [     224] linear =   121 [     26417] cuts =  0 [   0]
  --> max chng: dpmx=   7.8802E-01 dtmpmx=   3.4846E-02

== TH FLOW =====================================================================
 Step    218 Time=  1.03000E+01 Dt=  5.00000E-02 [y] snes_conv_reason:   11
  newton =   1 [     225] linear =   121 [     26538] cuts =  0 [   0]
  --> max chng: dpmx=   7.8796E-01 dtmpmx=   3.4727E-02

== TH FLOW =====================================================================
 Step    219 Time=  1.03500E+01 Dt=  5.00000E-02 [y] snes_conv_reason:   11
  newton =   1 [     226] linear =   120 [     26658] cuts =  0 [   0]
  --> max chng: dpmx=   7.8813E-01 dtmpmx=   3.4598E-02

== TH FLOW =====================================================================
 Step    220 Time=  1.04000E+01 Dt=  5.00000E-02 [y] snes_conv_reason:   11
  newton =   1 [     227] linear =   121 [     26779] cuts =  0 [   0]
  --> max chng: dpmx=   7.8803E-01 dtmpmx=   3.4459E-02

== TH FLOW =====================================================================
 Step    221 Time=  1.04500E+01 Dt=  5.00000E-02 [y] snes_conv_reason:   11
  newton =   1 [     228] linear =   121 [     26900] cuts =  0 [   0]
  --> max chng: dpmx=   7.8803E-01 dtmpmx=   3.4311E-02

== TH FLOW =====================================================================
 Step    222 Time=  1.05000E+01 Dt=  5.00000E-02 [y] snes_conv_reason:   11
  newton =   1 [     229] linear =   126 [     27026] cuts =  0 [   0]
  --> max chng: dpmx=   7.8816E-01 dtmpmx=   3.4175E-02

== TH FLOW =====================================================================
 Step    223 Time=  1.05500E+01 Dt=  5.00000E-02 [y] snes_conv_reason:   11
  newton =   1 [     230] linear =   115 [     27141] cuts =  0 [   0]
  --> max chng: dpmx=   7.8777E-01 dtmpmx=   3.4134E-02

== TH FLOW =====================================================================
 Step    224 Time=  1.06000E+01 Dt=  5.00000E-02 [y] snes_conv_reason:   11
  newton =   1 [     231] linear =   121 [     27262] cuts =  0 [   0]
  --> max chng: dpmx=   7.8816E-01 dtmpmx=   3.4083E-02

== TH FLOW =====================================================================
 Step    225 Time=  1.06500E+01 Dt=  5.00000E-02 [y] snes_conv_reason:   11
  newton =   1 [     232] linear =   116 [     27378] cuts =  0 [   0]
  --> max chng: dpmx=   7.8794E-01 dtmpmx=   3.4022E-02

== TH FLOW =====================================================================
 Step    226 Time=  1.07000E+01 Dt=  5.00000E-02 [y] snes_conv_reason:   11
  newton =   1 [     233] linear =   119 [     27497] cuts =  0 [   0]
  --> max chng: dpmx=   7.8837E-01 dtmpmx=   3.3952E-02

== TH FLOW =====================================================================
 Step    227 Time=  1.07500E+01 Dt=  5.00000E-02 [y] snes_conv_reason:   11
  newton =   1 [     234] linear =   121 [     27618] cuts =  0 [   0]
  --> max chng: dpmx=   7.8849E-01 dtmpmx=   3.3871E-02

== TH FLOW =====================================================================
 Step    228 Time=  1.08000E+01 Dt=  5.00000E-02 [y] snes_conv_reason:   11
  newton =   1 [     235] linear =   121 [     27739] cuts =  0 [   0]
  --> max chng: dpmx=   7.8887E-01 dtmpmx=   3.3782E-02

== TH FLOW =====================================================================
 Step    229 Time=  1.08500E+01 Dt=  5.00000E-02 [y] snes_conv_reason:   11
  newton =   1 [     236] linear =   120 [     27859] cuts =  0 [   0]
  --> max chng: dpmx=   7.8898E-01 dtmpmx=   3.3682E-02

== TH FLOW =====================================================================
 Step    230 Time=  1.09000E+01 Dt=  5.00000E-02 [y] snes_conv_reason:   11
  newton =   1 [     237] linear =   113 [     27972] cuts =  0 [   0]
  --> max chng: dpmx=   7.8878E-01 dtmpmx=   3.3580E-02

== TH FLOW =====================================================================
 Step    231 Time=  1.09500E+01 Dt=  5.00000E-02 [y] snes_conv_reason:   11
  newton =   1 [     238] linear =   121 [     28093] cuts =  0 [   0]
  --> max chng: dpmx=   7.8880E-01 dtmpmx=   3.3476E-02

== TH FLOW =====================================================================
 Step    232 Time=  1.10000E+01 Dt=  5.00000E-02 [y] snes_conv_reason:   11
  newton =   1 [     239] linear =   121 [     28214] cuts =  0 [   0]
  --> max chng: dpmx=   7.8888E-01 dtmpmx=   3.3363E-02

== TH FLOW =====================================================================
 Step    233 Time=  1.10500E+01 Dt=  5.00000E-02 [y] snes_conv_reason:   11
  newton =   1 [     240] linear =   121 [     28335] cuts =  0 [   0]
  --> max chng: dpmx=   7.8883E-01 dtmpmx=   3.3241E-02

== TH FLOW =====================================================================
 Step    234 Time=  1.11000E+01 Dt=  5.00000E-02 [y] snes_conv_reason:   11
  newton =   1 [     241] linear =   122 [     28457] cuts =  0 [   0]
  --> max chng: dpmx=   7.8885E-01 dtmpmx=   3.3111E-02

== TH FLOW =====================================================================
 Step    235 Time=  1.11500E+01 Dt=  5.00000E-02 [y] snes_conv_reason:   11
  newton =   1 [     242] linear =   122 [     28579] cuts =  0 [   0]
  --> max chng: dpmx=   7.8898E-01 dtmpmx=   3.2972E-02

== TH FLOW =====================================================================
 Step    236 Time=  1.12000E+01 Dt=  5.00000E-02 [y] snes_conv_reason:   11
  newton =   1 [     243] linear =   121 [     28700] cuts =  0 [   0]
  --> max chng: dpmx=   7.8941E-01 dtmpmx=   3.2929E-02

== TH FLOW =====================================================================
 Step    237 Time=  1.12500E+01 Dt=  5.00000E-02 [y] snes_conv_reason:   11
  newton =   1 [     244] linear =   123 [     28823] cuts =  0 [   0]
  --> max chng: dpmx=   7.8971E-01 dtmpmx=   3.2886E-02

== TH FLOW =====================================================================
 Step    238 Time=  1.13000E+01 Dt=  5.00000E-02 [y] snes_conv_reason:   11
  newton =   1 [     245] linear =   124 [     28947] cuts =  0 [   0]
  --> max chng: dpmx=   7.8982E-01 dtmpmx=   3.2834E-02

== TH FLOW =====================================================================
 Step    239 Time=  1.13500E+01 Dt=  5.00000E-02 [y] snes_conv_reason:   11
  newton =   1 [     246] linear =   123 [     29070] cuts =  0 [   0]
  --> max chng: dpmx=   7.8997E-01 dtmpmx=   3.2774E-02

== TH FLOW =====================================================================
 Step    240 Time=  1.14000E+01 Dt=  5.00000E-02 [y] snes_conv_reason:   11
  newton =   1 [     247] linear =   122 [     29192] cuts =  0 [   0]
  --> max chng: dpmx=   7.9003E-01 dtmpmx=   3.2704E-02

== TH FLOW =====================================================================
 Step    241 Time=  1.14500E+01 Dt=  5.00000E-02 [y] snes_conv_reason:   11
  newton =   1 [     248] linear =   122 [     29314] cuts =  0 [   0]
  --> max chng: dpmx=   7.9025E-01 dtmpmx=   3.2626E-02

== TH FLOW =====================================================================
 Step    242 Time=  1.15000E+01 Dt=  5.00000E-02 [y] snes_conv_reason:   11
  newton =   1 [     249] linear =   122 [     29436] cuts =  0 [   0]
  --> max chng: dpmx=   7.9008E-01 dtmpmx=   3.2540E-02

== TH FLOW =====================================================================
 Step    243 Time=  1.15500E+01 Dt=  5.00000E-02 [y] snes_conv_reason:   11
  newton =   1 [     250] linear =   124 [     29560] cuts =  0 [   0]
  --> max chng: dpmx=   7.9017E-01 dtmpmx=   3.2445E-02

== TH FLOW =====================================================================
 Step    244 Time=  1.16000E+01 Dt=  5.00000E-02 [y] snes_conv_reason:   11
  newton =   1 [     251] linear =   121 [     29681] cuts =  0 [   0]
  --> max chng: dpmx=   7.9040E-01 dtmpmx=   3.2345E-02

== TH FLOW =====================================================================
 Step    245 Time=  1.16500E+01 Dt=  5.00000E-02 [y] snes_conv_reason:   11
  newton =   1 [     252] linear =   124 [     29805] cuts =  0 [   0]
  --> max chng: dpmx=   7.9071E-01 dtmpmx=   3.2245E-02

== TH FLOW =====================================================================
 Step    246 Time=  1.17000E+01 Dt=  5.00000E-02 [y] snes_conv_reason:   11
  newton =   1 [     253] linear =   123 [     29928] cuts =  0 [   0]
  --> max chng: dpmx=   7.9101E-01 dtmpmx=   3.2138E-02

== TH FLOW =====================================================================
 Step    247 Time=  1.17500E+01 Dt=  5.00000E-02 [y] snes_conv_reason:   11
  newton =   1 [     254] linear =   124 [     30052] cuts =  0 [   0]
  --> max chng: dpmx=   7.9133E-01 dtmpmx=   3.2023E-02

== TH FLOW =====================================================================
 Step    248 Time=  1.18000E+01 Dt=  5.00000E-02 [y] snes_conv_reason:   11
  newton =   1 [     255] linear =   121 [     30173] cuts =  0 [   0]
  --> max chng: dpmx=   7.9164E-01 dtmpmx=   3.1900E-02

== TH FLOW =====================================================================
 Step    249 Time=  1.18500E+01 Dt=  5.00000E-02 [y] snes_conv_reason:   11
  newton =   1 [     256] linear =   120 [     30293] cuts =  0 [   0]
  --> max chng: dpmx=   7.9195E-01 dtmpmx=   3.1835E-02

== TH FLOW =====================================================================
 Step    250 Time=  1.19000E+01 Dt=  5.00000E-02 [y] snes_conv_reason:   11
  newton =   1 [     257] linear =   124 [     30417] cuts =  0 [   0]
  --> max chng: dpmx=   7.9192E-01 dtmpmx=   3.1800E-02

== TH FLOW =====================================================================
 Step    251 Time=  1.19500E+01 Dt=  5.00000E-02 [y] snes_conv_reason:   11
  newton =   1 [     258] linear =   122 [     30539] cuts =  0 [   0]
  --> max chng: dpmx=   7.9222E-01 dtmpmx=   3.1756E-02

== TH FLOW =====================================================================
 Step    252 Time=  1.20000E+01 Dt=  5.00000E-02 [y] snes_conv_reason:   11
  newton =   1 [     259] linear =   122 [     30661] cuts =  0 [   0]
  --> max chng: dpmx=   7.9220E-01 dtmpmx=   3.1704E-02

== TH FLOW =====================================================================
 Step    253 Time=  1.20500E+01 Dt=  5.00000E-02 [y] snes_conv_reason:   11
  newton =   1 [     260] linear =   122 [     30783] cuts =  0 [   0]
  --> max chng: dpmx=   7.9201E-01 dtmpmx=   3.1643E-02

== TH FLOW =====================================================================
 Step    254 Time=  1.21000E+01 Dt=  5.00000E-02 [y] snes_conv_reason:   11
  newton =   1 [     261] linear =   122 [     30905] cuts =  0 [   0]
  --> max chng: dpmx=   7.9280E-01 dtmpmx=   3.1575E-02

== TH FLOW =====================================================================
 Step    255 Time=  1.21500E+01 Dt=  5.00000E-02 [y] snes_conv_reason:   11
  newton =   1 [     262] linear =   121 [     31026] cuts =  0 [   0]
  --> max chng: dpmx=   7.9308E-01 dtmpmx=   3.1500E-02

== TH FLOW =====================================================================
 Step    256 Time=  1.22000E+01 Dt=  5.00000E-02 [y] snes_conv_reason:   11
  newton =   1 [     263] linear =   122 [     31148] cuts =  0 [   0]
  --> max chng: dpmx=   7.9325E-01 dtmpmx=   3.1417E-02

== TH FLOW =====================================================================
 Step    257 Time=  1.22500E+01 Dt=  5.00000E-02 [y] snes_conv_reason:   11
  newton =   1 [     264] linear =   121 [     31269] cuts =  0 [   0]
  --> max chng: dpmx=   7.9370E-01 dtmpmx=   3.1326E-02

[...]
 Step    493 Time=  2.40500E+01 Dt=  5.00000E-02 [y] snes_conv_reason:   11
  newton =   1 [     500] linear =   120 [     59473] cuts =  0 [   0]
  --> max chng: dpmx=   9.9117E-01 dtmpmx=   2.1192E-02

== TH FLOW =====================================================================
 Step    494 Time=  2.41000E+01 Dt=  5.00000E-02 [y] snes_conv_reason:   11
  newton =   1 [     501] linear =   120 [     59593] cuts =  0 [   0]
  --> max chng: dpmx=   9.9183E-01 dtmpmx=   2.1174E-02

== TH FLOW =====================================================================
 Step    495 Time=  2.41500E+01 Dt=  5.00000E-02 [y] snes_conv_reason:   11
  newton =   1 [     502] linear =   120 [     59713] cuts =  0 [   0]
  --> max chng: dpmx=   9.9252E-01 dtmpmx=   2.1154E-02

== TH FLOW =====================================================================
 Step    496 Time=  2.42000E+01 Dt=  5.00000E-02 [y] snes_conv_reason:   11
  newton =   1 [     503] linear =   120 [     59833] cuts =  0 [   0]
  --> max chng: dpmx=   9.9319E-01 dtmpmx=   2.1132E-02

== TH FLOW =====================================================================
 Step    497 Time=  2.42500E+01 Dt=  5.00000E-02 [y] snes_conv_reason:   11
  newton =   1 [     504] linear =   120 [     59953] cuts =  0 [   0]
  --> max chng: dpmx=   9.9384E-01 dtmpmx=   2.1107E-02

== TH FLOW =====================================================================
 Step    498 Time=  2.43000E+01 Dt=  5.00000E-02 [y] snes_conv_reason:   11
  newton =   1 [     505] linear =   120 [     60073] cuts =  0 [   0]
  --> max chng: dpmx=   9.9448E-01 dtmpmx=   2.1080E-02

== TH FLOW =====================================================================
 Step    499 Time=  2.43500E+01 Dt=  5.00000E-02 [y] snes_conv_reason:   11
  newton =   1 [     506] linear =   123 [     60196] cuts =  0 [   0]
  --> max chng: dpmx=   9.9509E-01 dtmpmx=   2.1050E-02

== TH FLOW =====================================================================
 Step    500 Time=  2.44000E+01 Dt=  5.00000E-02 [y] snes_conv_reason:   11
  newton =   1 [     507] linear =   124 [     60320] cuts =  0 [   0]
  --> max chng: dpmx=   9.9537E-01 dtmpmx=   2.1018E-02

== TH FLOW =====================================================================
 Step    501 Time=  2.44500E+01 Dt=  5.00000E-02 [y] snes_conv_reason:   11
  newton =   1 [     508] linear =   125 [     60445] cuts =  0 [   0]
  --> max chng: dpmx=   9.9612E-01 dtmpmx=   2.0984E-02

== TH FLOW =====================================================================
 Step    502 Time=  2.45000E+01 Dt=  5.00000E-02 [y] snes_conv_reason:   11
  newton =   1 [     509] linear =   121 [     60566] cuts =  0 [   0]
  --> max chng: dpmx=   9.9670E-01 dtmpmx=   2.0947E-02

== TH FLOW =====================================================================
 Step    503 Time=  2.45500E+01 Dt=  5.00000E-02 [y] snes_conv_reason:   11
  newton =   1 [     510] linear =   125 [     60691] cuts =  0 [   0]
  --> max chng: dpmx=   9.9704E-01 dtmpmx=   2.0908E-02

== TH FLOW =====================================================================
 Step    504 Time=  2.46000E+01 Dt=  5.00000E-02 [y] snes_conv_reason:   11
  newton =   1 [     511] linear =   124 [     60815] cuts =  0 [   0]
  --> max chng: dpmx=   9.9775E-01 dtmpmx=   2.0889E-02

== TH FLOW =====================================================================
 Step    505 Time=  2.46500E+01 Dt=  5.00000E-02 [y] snes_conv_reason:   11
  newton =   1 [     512] linear =   124 [     60939] cuts =  0 [   0]
  --> max chng: dpmx=   9.9841E-01 dtmpmx=   2.0878E-02

== TH FLOW =====================================================================
 Step    506 Time=  2.47000E+01 Dt=  5.00000E-02 [y] snes_conv_reason:   11
  newton =   1 [     513] linear =   121 [     61060] cuts =  0 [   0]
  --> max chng: dpmx=   9.9884E-01 dtmpmx=   2.0865E-02

== TH FLOW =====================================================================
 Step    507 Time=  2.47500E+01 Dt=  5.00000E-02 [y] snes_conv_reason:   11
  newton =   1 [     514] linear =   121 [     61181] cuts =  0 [   0]
  --> max chng: dpmx=   9.9960E-01 dtmpmx=   2.0849E-02

== TH FLOW =====================================================================
 Step    508 Time=  2.48000E+01 Dt=  5.00000E-02 [y] snes_conv_reason:    3
  newton =   1 [     515] linear =   121 [     61302] cuts =  0 [   0]
  --> max chng: dpmx=   1.0002E+00 dtmpmx=   2.0831E-02

== TH FLOW =====================================================================
 Step    509 Time=  2.48500E+01 Dt=  5.00000E-02 [y] snes_conv_reason:    3
  newton =   1 [     516] linear =   121 [     61423] cuts =  0 [   0]
  --> max chng: dpmx=   1.0007E+00 dtmpmx=   2.0811E-02

== TH FLOW =====================================================================
 Step    510 Time=  2.49000E+01 Dt=  5.00000E-02 [y] snes_conv_reason:    3
  newton =   1 [     517] linear =   119 [     61542] cuts =  0 [   0]
  --> max chng: dpmx=   1.0013E+00 dtmpmx=   2.0788E-02

== TH FLOW =====================================================================
 Step    511 Time=  2.49500E+01 Dt=  5.00000E-02 [y] snes_conv_reason:    3
  newton =   1 [     518] linear =   119 [     61661] cuts =  0 [   0]
  --> max chng: dpmx=   1.0019E+00 dtmpmx=   2.0763E-02

== TH FLOW =====================================================================
 Step    512 Time=  2.50000E+01 Dt=  5.00000E-02 [y] snes_conv_reason:    3
  newton =   1 [     519] linear =   120 [     61781] cuts =  0 [   0]
  --> max chng: dpmx=   1.0022E+00 dtmpmx=   2.0736E-02

== TH FLOW =====================================================================
 Step    513 Time=  2.50500E+01 Dt=  5.00000E-02 [y] snes_conv_reason:    3
  newton =   1 [     520] linear =   121 [     61902] cuts =  0 [   0]
  --> max chng: dpmx=   1.0026E+00 dtmpmx=   2.0706E-02

== TH FLOW =====================================================================
 Step    514 Time=  2.51000E+01 Dt=  5.00000E-02 [y] snes_conv_reason:    3
  newton =   1 [     521] linear =   121 [     62023] cuts =  0 [   0]
  --> max chng: dpmx=   1.0032E+00 dtmpmx=   2.0675E-02

== TH FLOW =====================================================================
 Step    515 Time=  2.51500E+01 Dt=  5.00000E-02 [y] snes_conv_reason:    3
  newton =   1 [     522] linear =   121 [     62144] cuts =  0 [   0]
  --> max chng: dpmx=   1.0036E+00 dtmpmx=   2.0640E-02

== TH FLOW =====================================================================
 Step    516 Time=  2.52000E+01 Dt=  5.00000E-02 [y] snes_conv_reason:    3
  newton =   1 [     523] linear =   121 [     62265] cuts =  0 [   0]
  --> max chng: dpmx=   1.0042E+00 dtmpmx=   2.0604E-02

== TH FLOW =====================================================================
 Step    517 Time=  2.52500E+01 Dt=  5.00000E-02 [y] snes_conv_reason:    3
  newton =   1 [     524] linear =   121 [     62386] cuts =  0 [   0]
  --> max chng: dpmx=   1.0048E+00 dtmpmx=   2.0572E-02

== TH FLOW =====================================================================
 Step    518 Time=  2.53000E+01 Dt=  5.00000E-02 [y] snes_conv_reason:    3
  newton =   1 [     525] linear =   117 [     62503] cuts =  0 [   0]
  --> max chng: dpmx=   1.0055E+00 dtmpmx=   2.0563E-02

== TH FLOW =====================================================================
 Step    519 Time=  2.53500E+01 Dt=  5.00000E-02 [y] snes_conv_reason:    3
  newton =   1 [     526] linear =   121 [     62624] cuts =  0 [   0]
  --> max chng: dpmx=   1.0056E+00 dtmpmx=   2.0551E-02

== TH FLOW =====================================================================
 Step    520 Time=  2.54000E+01 Dt=  5.00000E-02 [y] snes_conv_reason:    3
  newton =   1 [     527] linear =   121 [     62745] cuts =  0 [   0]
  --> max chng: dpmx=   1.0064E+00 dtmpmx=   2.0538E-02

== TH FLOW =====================================================================
 Step    521 Time=  2.54500E+01 Dt=  5.00000E-02 [y] snes_conv_reason:    3
  newton =   1 [     528] linear =   121 [     62866] cuts =  0 [   0]
  --> max chng: dpmx=   1.0068E+00 dtmpmx=   2.0521E-02

== TH FLOW =====================================================================
 Step    522 Time=  2.55000E+01 Dt=  5.00000E-02 [y] snes_conv_reason:    3
  newton =   1 [     529] linear =   120 [     62986] cuts =  0 [   0]
  --> max chng: dpmx=   1.0072E+00 dtmpmx=   2.0503E-02

== TH FLOW =====================================================================
 Step    523 Time=  2.55500E+01 Dt=  5.00000E-02 [y] snes_conv_reason:    3
  newton =   1 [     530] linear =   116 [     63102] cuts =  0 [   0]
  --> max chng: dpmx=   1.0078E+00 dtmpmx=   2.0482E-02

== TH FLOW =====================================================================
 Step    524 Time=  2.56000E+01 Dt=  5.00000E-02 [y] snes_conv_reason:    3
  newton =   1 [     531] linear =   118 [     63220] cuts =  0 [   0]
  --> max chng: dpmx=   1.0080E+00 dtmpmx=   2.0459E-02

== TH FLOW =====================================================================
 Step    525 Time=  2.56500E+01 Dt=  5.00000E-02 [y] snes_conv_reason:    3
  newton =   1 [     532] linear =   120 [     63340] cuts =  0 [   0]
  --> max chng: dpmx=   1.0085E+00 dtmpmx=   2.0434E-02

== TH FLOW =====================================================================
 Step    526 Time=  2.57000E+01 Dt=  5.00000E-02 [y] snes_conv_reason:    3
  newton =   1 [     533] linear =   121 [     63461] cuts =  0 [   0]
  --> max chng: dpmx=   1.0089E+00 dtmpmx=   2.0406E-02

== TH FLOW =====================================================================
 Step    527 Time=  2.57500E+01 Dt=  5.00000E-02 [y] snes_conv_reason:    3
  newton =   1 [     534] linear =   117 [     63578] cuts =  0 [   0]
  --> max chng: dpmx=   1.0096E+00 dtmpmx=   2.0377E-02

== TH FLOW =====================================================================
 Step    528 Time=  2.58000E+01 Dt=  5.00000E-02 [y] snes_conv_reason:    3
  newton =   1 [     535] linear =   117 [     63695] cuts =  0 [   0]
  --> max chng: dpmx=   1.0100E+00 dtmpmx=   2.0345E-02

== TH FLOW =====================================================================
 Step    529 Time=  2.58500E+01 Dt=  5.00000E-02 [y] snes_conv_reason:    3
  newton =   1 [     536] linear =   121 [     63816] cuts =  0 [   0]
  --> max chng: dpmx=   1.0101E+00 dtmpmx=   2.0311E-02

== TH FLOW =====================================================================
 Step    530 Time=  2.59000E+01 Dt=  5.00000E-02 [y] snes_conv_reason:    3
  newton =   1 [     537] linear =   121 [     63937] cuts =  0 [   0]
  --> max chng: dpmx=   1.0108E+00 dtmpmx=   2.0275E-02

== TH FLOW =====================================================================
 Step    531 Time=  2.59500E+01 Dt=  5.00000E-02 [y] snes_conv_reason:    3
  newton =   1 [     538] linear =   119 [     64056] cuts =  0 [   0]
  --> max chng: dpmx=   1.0112E+00 dtmpmx=   2.0260E-02

== TH FLOW =====================================================================
 Step    532 Time=  2.60000E+01 Dt=  5.00000E-02 [y] snes_conv_reason:    3
  newton =   1 [     539] linear =   121 [     64177] cuts =  0 [   0]
  --> max chng: dpmx=   1.0118E+00 dtmpmx=   2.0250E-02

== TH FLOW =====================================================================
 Step    533 Time=  2.60500E+01 Dt=  5.00000E-02 [y] snes_conv_reason:    3
  newton =   1 [     540] linear =   121 [     64298] cuts =  0 [   0]
  --> max chng: dpmx=   1.0121E+00 dtmpmx=   2.0238E-02

== TH FLOW =====================================================================
 Step    534 Time=  2.61000E+01 Dt=  5.00000E-02 [y] snes_conv_reason:    3
  newton =   1 [     541] linear =   121 [     64419] cuts =  0 [   0]
  --> max chng: dpmx=   1.0125E+00 dtmpmx=   2.0223E-02

== TH FLOW =====================================================================
 Step    535 Time=  2.61500E+01 Dt=  5.00000E-02 [y] snes_conv_reason:    3
  newton =   1 [     542] linear =   120 [     64539] cuts =  0 [   0]
  --> max chng: dpmx=   1.0127E+00 dtmpmx=   2.0206E-02

== TH FLOW =====================================================================
 Step    536 Time=  2.62000E+01 Dt=  5.00000E-02 [y] snes_conv_reason:    3
  newton =   1 [     543] linear =   120 [     64659] cuts =  0 [   0]
  --> max chng: dpmx=   1.0132E+00 dtmpmx=   2.0187E-02

== TH FLOW =====================================================================
 Step    537 Time=  2.62500E+01 Dt=  5.00000E-02 [y] snes_conv_reason:    3
  newton =   1 [     544] linear =   118 [     64777] cuts =  0 [   0]
  --> max chng: dpmx=   1.0134E+00 dtmpmx=   2.0166E-02

== TH FLOW =====================================================================
 Step    538 Time=  2.63000E+01 Dt=  5.00000E-02 [y] snes_conv_reason:    3
  newton =   1 [     545] linear =   116 [     64893] cuts =  0 [   0]
  --> max chng: dpmx=   1.0140E+00 dtmpmx=   2.0143E-02

== TH FLOW =====================================================================
 Step    539 Time=  2.63500E+01 Dt=  5.00000E-02 [y] snes_conv_reason:    3
  newton =   1 [     546] linear =   115 [     65008] cuts =  0 [   0]
  --> max chng: dpmx=   1.0145E+00 dtmpmx=   2.0117E-02

== TH FLOW =====================================================================
 Step    540 Time=  2.64000E+01 Dt=  5.00000E-02 [y] snes_conv_reason:    3
  newton =   1 [     547] linear =   121 [     65129] cuts =  0 [   0]
  --> max chng: dpmx=   1.0145E+00 dtmpmx=   2.0090E-02

== TH FLOW =====================================================================
 Step    541 Time=  2.64500E+01 Dt=  5.00000E-02 [y] snes_conv_reason:    3
  newton =   1 [     548] linear =   121 [     65250] cuts =  0 [   0]
  --> max chng: dpmx=   1.0152E+00 dtmpmx=   2.0060E-02

== TH FLOW =====================================================================
 Step    542 Time=  2.65000E+01 Dt=  5.00000E-02 [y] snes_conv_reason:    3
  newton =   1 [     549] linear =   123 [     65373] cuts =  0 [   0]
  --> max chng: dpmx=   1.0156E+00 dtmpmx=   2.0029E-02

== TH FLOW =====================================================================
 Step    543 Time=  2.65500E+01 Dt=  5.00000E-02 [y] snes_conv_reason:    3
  newton =   1 [     550] linear =   123 [     65496] cuts =  0 [   0]
  --> max chng: dpmx=   1.0160E+00 dtmpmx=   1.9995E-02

== TH FLOW =====================================================================
 Step    544 Time=  2.66000E+01 Dt=  5.00000E-02 [y] snes_conv_reason:    3
  newton =   1 [     551] linear =   119 [     65615] cuts =  0 [   0]
  --> max chng: dpmx=   1.0162E+00 dtmpmx=   1.9969E-02

== TH FLOW =====================================================================
 Step    545 Time=  2.66500E+01 Dt=  5.00000E-02 [y] snes_conv_reason:    3
  newton =   1 [     552] linear =   113 [     65728] cuts =  0 [   0]
  --> max chng: dpmx=   1.0169E+00 dtmpmx=   1.9960E-02

== TH FLOW =====================================================================
 Step    546 Time=  2.67000E+01 Dt=  5.00000E-02 [y] snes_conv_reason:    3
  newton =   1 [     553] linear =   113 [     65841] cuts =  0 [   0]
  --> max chng: dpmx=   1.0167E+00 dtmpmx=   1.9949E-02

== TH FLOW =====================================================================
 Step    547 Time=  2.67500E+01 Dt=  5.00000E-02 [y] snes_conv_reason:    3
  newton =   1 [     554] linear =   116 [     65957] cuts =  0 [   0]
  --> max chng: dpmx=   1.0172E+00 dtmpmx=   1.9936E-02

== TH FLOW =====================================================================
 Step    548 Time=  2.68000E+01 Dt=  5.00000E-02 [y] snes_conv_reason:    3
  newton =   1 [     555] linear =   115 [     66072] cuts =  0 [   0]
  --> max chng: dpmx=   1.0174E+00 dtmpmx=   1.9920E-02

== TH FLOW =====================================================================
 Step    549 Time=  2.68500E+01 Dt=  5.00000E-02 [y] snes_conv_reason:    3
  newton =   1 [     556] linear =   121 [     66193] cuts =  0 [   0]
  --> max chng: dpmx=   1.0178E+00 dtmpmx=   1.9903E-02

== TH FLOW =====================================================================
 Step    550 Time=  2.69000E+01 Dt=  5.00000E-02 [y] snes_conv_reason:    3
  newton =   1 [     557] linear =   121 [     66314] cuts =  0 [   0]
  --> max chng: dpmx=   1.0181E+00 dtmpmx=   1.9884E-02

== TH FLOW =====================================================================
 Step    551 Time=  2.69500E+01 Dt=  5.00000E-02 [y] snes_conv_reason:    3
  newton =   1 [     558] linear =   120 [     66434] cuts =  0 [   0]
  --> max chng: dpmx=   1.0184E+00 dtmpmx=   1.9862E-02

== TH FLOW =====================================================================
 Step    552 Time=  2.70000E+01 Dt=  5.00000E-02 [y] snes_conv_reason:    3
  newton =   1 [     559] linear =   121 [     66555] cuts =  0 [   0]
  --> max chng: dpmx=   1.0189E+00 dtmpmx=   1.9839E-02

== TH FLOW =====================================================================
 Step    553 Time=  2.70500E+01 Dt=  5.00000E-02 [y] snes_conv_reason:    3
  newton =   1 [     560] linear =   120 [     66675] cuts =  0 [   0]
  --> max chng: dpmx=   1.0194E+00 dtmpmx=   1.9813E-02

== TH FLOW =====================================================================
 Step    554 Time=  2.71000E+01 Dt=  5.00000E-02 [y] snes_conv_reason:    3
  newton =   1 [     561] linear =   121 [     66796] cuts =  0 [   0]
  --> max chng: dpmx=   1.0193E+00 dtmpmx=   1.9786E-02

== TH FLOW =====================================================================
 Step    555 Time=  2.71500E+01 Dt=  5.00000E-02 [y] snes_conv_reason:    3
  newton =   1 [     562] linear =   120 [     66916] cuts =  0 [   0]
  --> max chng: dpmx=   1.0200E+00 dtmpmx=   1.9756E-02

== TH FLOW =====================================================================
 Step    556 Time=  2.72000E+01 Dt=  5.00000E-02 [y] snes_conv_reason:    3
  newton =   1 [     563] linear =   120 [     67036] cuts =  0 [   0]
  --> max chng: dpmx=   1.0200E+00 dtmpmx=   1.9725E-02

== TH FLOW =====================================================================
 Step    557 Time=  2.72500E+01 Dt=  5.00000E-02 [y] snes_conv_reason:    3
  newton =   1 [     564] linear =   121 [     67157] cuts =  0 [   0]
  --> max chng: dpmx=   1.0205E+00 dtmpmx=   1.9692E-02

== TH FLOW =====================================================================
 Step    558 Time=  2.73000E+01 Dt=  5.00000E-02 [y] snes_conv_reason:    3
  newton =   1 [     565] linear =   121 [     67278] cuts =  0 [   0]
  --> max chng: dpmx=   1.0206E+00 dtmpmx=   1.9680E-02

== TH FLOW =====================================================================
 Step    559 Time=  2.73500E+01 Dt=  5.00000E-02 [y] snes_conv_reason:    3
  newton =   1 [     566] linear =   120 [     67398] cuts =  0 [   0]
  --> max chng: dpmx=   1.0209E+00 dtmpmx=   1.9671E-02

== TH FLOW =====================================================================
 Step    560 Time=  2.74000E+01 Dt=  5.00000E-02 [y] snes_conv_reason:    3
  newton =   1 [     567] linear =   119 [     67517] cuts =  0 [   0]
  --> max chng: dpmx=   1.0211E+00 dtmpmx=   1.9659E-02

== TH FLOW =====================================================================
 Step    561 Time=  2.74500E+01 Dt=  5.00000E-02 [y] snes_conv_reason:    3
  newton =   1 [     568] linear =   121 [     67638] cuts =  0 [   0]
  --> max chng: dpmx=   1.0213E+00 dtmpmx=   1.9645E-02

== TH FLOW =====================================================================
 Step    562 Time=  2.75000E+01 Dt=  5.00000E-02 [y] snes_conv_reason:    3
  newton =   1 [     569] linear =   121 [     67759] cuts =  0 [   0]
  --> max chng: dpmx=   1.0217E+00 dtmpmx=   1.9629E-02

 Wall Clock Time:  1.9393E+02 [sec]   3.2322E+00 [min]   5.3870E-02 [hr]
