
===================
  PFLOTRAN v3.0.1
===================

 Extent of Gridded Domain
  X: 2.5000000000000000 - 97.500000000000000
  Y: 2.5000000000000000 - 1277.5000000000000
  Z: 2.5000000000000000 - 2.5000000000000000


=+=+=+=+=+=+=+=+=+=+=+=+=+=+=+=+=+=+=+=+=+=+=+=+=+=+=+=+=+=+=+=+=+=+=+=+=+=+=+=+

  Initial Condition

--------------------------------------------------------------------------------
          Flow Condition:   initial
                  Region:   all
--------------------------------------------------------------------------------

  Flow Condition: initial
    Synchronize time with update: no
    Time units: yr
    Length units: m
      Datum:
        Dataset: Unnamed Ascii Dataset
          Type: dataset_ascii_type
          Transient: no
          Array Rank:  3

    Sub Condition: pressure
      Type: hydrostatic
      Gradient:
        Dataset: Unnamed Ascii Dataset
          Type: dataset_ascii_type
          Transient: no
          Array Rank:  3
      Data:
        Dataset: Unnamed Ascii Dataset
          Type: dataset_ascii_type
          Transient: no
          Array Rank:  1

    Sub Condition: temperature
      Type: dirichlet
      Gradient:
      Data:
        Dataset: Unnamed Ascii Dataset
          Type: dataset_ascii_type
          Transient: no
          Array Rank:  1

--------------------------------------------------------------------------------

=+=+=+=+=+=+=+=+=+=+=+=+=+=+=+=+=+=+=+=+=+=+=+=+=+=+=+=+=+=+=+=+=+=+=+=+=+=+=+=+

  Boundary Condition

--------------------------------------------------------------------------------
          Flow Condition:   initial
                  Region:   north
--------------------------------------------------------------------------------

  Flow Condition: initial
    Synchronize time with update: no
    Time units: yr
    Length units: m
      Datum:
        Dataset: Unnamed Ascii Dataset
          Type: dataset_ascii_type
          Transient: no
          Array Rank:  3

    Sub Condition: pressure
      Type: hydrostatic
      Gradient:
        Dataset: Unnamed Ascii Dataset
          Type: dataset_ascii_type
          Transient: no
          Array Rank:  3
      Data:
        Dataset: Unnamed Ascii Dataset
          Type: dataset_ascii_type
          Transient: no
          Array Rank:  1

    Sub Condition: temperature
      Type: dirichlet
      Gradient:
      Data:
        Dataset: Unnamed Ascii Dataset
          Type: dataset_ascii_type
          Transient: no
          Array Rank:  1

--------------------------------------------------------------------------------

=+=+=+=+=+=+=+=+=+=+=+=+=+=+=+=+=+=+=+=+=+=+=+=+=+=+=+=+=+=+=+=+=+=+=+=+=+=+=+=+

  Boundary Condition

--------------------------------------------------------------------------------
          Flow Condition:   initial
                  Region:   south
--------------------------------------------------------------------------------

  Flow Condition: initial
    Synchronize time with update: no
    Time units: yr
    Length units: m
      Datum:
        Dataset: Unnamed Ascii Dataset
          Type: dataset_ascii_type
          Transient: no
          Array Rank:  3

    Sub Condition: pressure
      Type: hydrostatic
      Gradient:
        Dataset: Unnamed Ascii Dataset
          Type: dataset_ascii_type
          Transient: no
          Array Rank:  3
      Data:
        Dataset: Unnamed Ascii Dataset
          Type: dataset_ascii_type
          Transient: no
          Array Rank:  1

    Sub Condition: temperature
      Type: dirichlet
      Gradient:
      Data:
        Dataset: Unnamed Ascii Dataset
          Type: dataset_ascii_type
          Transient: no
          Array Rank:  1

--------------------------------------------------------------------------------

=+=+=+=+=+=+=+=+=+=+=+=+=+=+=+=+=+=+=+=+=+=+=+=+=+=+=+=+=+=+=+=+=+=+=+=+=+=+=+=+

  Source Sink

--------------------------------------------------------------------------------
          Flow Condition:   injection
                  Region:   heatpump_inject0
--------------------------------------------------------------------------------

  Flow Condition: injection
    Synchronize time with update: no
    Time units: yr
    Length units: m
      Datum:

    Sub Condition: rate
      Type: scaled volumetric rate
      Gradient:
      Data:
        Dataset: Unnamed Ascii Dataset
          Type: dataset_ascii_type
          Is transient?: yes
          Number of times:      3
          Is cyclic?: no
          Buffer:
            Rank:  2
            Dims:    1   3
            Buffer Slice Size:   0
          Array Rank:  1

    Sub Condition: temperature
      Type: dirichlet
      Gradient:
      Data:
        Dataset: Unnamed Ascii Dataset
          Type: dataset_ascii_type
          Transient: no
          Array Rank:  1

--------------------------------------------------------------------------------

 Requested processors =    32

FLOW Time Stepper
                 acceleration: on
       acceleration threshold: 5
       number of ramp entries: 5
                ramp entry #1: 2.0000
                ramp entry #2: 2.0000
                ramp entry #3: 2.0000
                ramp entry #4: 2.0000
                ramp entry #5: 2.0000
                ramp entry #6: 1.8000
                ramp entry #7: 1.6000
                ramp entry #8: 1.4000
                ramp entry #9: 1.2000
               ramp entry #10: 1.0000
               ramp entry #11: 1.0000
               ramp entry #12: 1.0000
               ramp entry #13: 1.0000
      maximum number of steps: 999999
constant time steps threshold: 5
       maximum number of cuts: 16
             reduction factor: 5.000000E-01
        maximum growth factor: 2.000000E+00

FLOW Newton Solver
                         atol: 1.000000E-50
                         rtol: 1.000000E-03
                         stol: 1.000000E-08
                         dtol: 1.000000E+04
                      maxnorm: 1.000000E+20
                    inftolres: -9.990000E+02
                    inftolupd: 1.000000E+00
                 inftolrelupd: -9.990000E+02
                 inftolsclres: -9.990000E+02
                     max iter: 50
                     min iter: 1
                         maxf: 10000
                  matrix type: baij
         precond. matrix type: baij
               inexact newton: off
            print convergence: on
   print detailed convergence: off
          check infinity norm: on

FLOW Linear Solver
                       solver: bcgs
               preconditioner: bjacobi
                         atol: 1.000000E-50
                         rtol: 1.000000E-05
                         dtol: 1.000000E+04
            maximum iteration: 10000

== TH FLOW =====================================================================
 Step      1 Time=  1.00000E-05 Dt=  1.00000E-05 [y] snes_conv_reason:   11
  newton =   1 [       1] linear =   106 [       106] cuts =  0 [   0]
  --> max chng: dpmx=   3.7161E-02 dtmpmx=   1.7744E-09

== TH FLOW =====================================================================
 Step      2 Time=  3.00000E-05 Dt=  2.00000E-05 [y] snes_conv_reason:   11
  newton =   1 [       2] linear =   114 [       220] cuts =  0 [   0]
  --> max chng: dpmx=   3.0741E-02 dtmpmx=   3.4942E-09

== TH FLOW =====================================================================
 Step      3 Time=  7.00000E-05 Dt=  4.00000E-05 [y] snes_conv_reason:   11
  newton =   1 [       3] linear =   113 [       333] cuts =  0 [   0]
  --> max chng: dpmx=   1.5181E-02 dtmpmx=   6.9305E-09

== TH FLOW =====================================================================
 Step      4 Time=  1.50000E-04 Dt=  8.00000E-05 [y] snes_conv_reason:   11
  newton =   1 [       4] linear =   120 [       453] cuts =  0 [   0]
  --> max chng: dpmx=   4.2342E-03 dtmpmx=   1.3828E-08

== TH FLOW =====================================================================
 Step      5 Time=  3.10000E-04 Dt=  1.60000E-04 [y] snes_conv_reason:   11
  newton =   1 [       5] linear =   122 [       575] cuts =  0 [   0]
  --> max chng: dpmx=   6.3378E-04 dtmpmx=   2.7647E-08

== TH FLOW =====================================================================
 Step      6 Time=  6.30000E-04 Dt=  3.20000E-04 [y] snes_conv_reason:   11
  newton =   1 [       6] linear =   123 [       698] cuts =  0 [   0]
  --> max chng: dpmx=   4.9180E-05 dtmpmx=   5.5294E-08

== TH FLOW =====================================================================
 Step      7 Time=  1.27000E-03 Dt=  6.40000E-04 [y] snes_conv_reason:   11
  newton =   1 [       7] linear =   135 [       833] cuts =  0 [   0]
  --> max chng: dpmx=   1.7649E-06 dtmpmx=   1.1059E-07

== TH FLOW =====================================================================
 Step      8 Time=  2.55000E-03 Dt=  1.28000E-03 [y] snes_conv_reason:   11
  newton =   1 [       8] linear =   118 [       951] cuts =  0 [   0]
  --> max chng: dpmx=   7.5856E-07 dtmpmx=   2.2118E-07

== TH FLOW =====================================================================
 Step      9 Time=  5.11000E-03 Dt=  2.56000E-03 [y] snes_conv_reason:   11
  newton =   1 [       9] linear =   119 [      1070] cuts =  0 [   0]
  --> max chng: dpmx=   1.5433E-06 dtmpmx=   4.4235E-07

== TH FLOW =====================================================================
 Step     10 Time=  1.02300E-02 Dt=  5.12000E-03 [y] snes_conv_reason:   11
  newton =   1 [      10] linear =   127 [      1197] cuts =  0 [   0]
  --> max chng: dpmx=   3.1784E-06 dtmpmx=   8.8470E-07

== TH FLOW =====================================================================
 Step     11 Time=  2.04700E-02 Dt=  1.02400E-02 [y] snes_conv_reason:   11
  newton =   1 [      11] linear =   128 [      1325] cuts =  0 [   0]
  --> max chng: dpmx=   6.7189E-06 dtmpmx=   1.7694E-06

== TH FLOW =====================================================================
 Step     12 Time=  4.09500E-02 Dt=  2.04800E-02 [y] snes_conv_reason:   11
  newton =   1 [      12] linear =   124 [      1449] cuts =  0 [   0]
  --> max chng: dpmx=   1.4910E-05 dtmpmx=   3.5388E-06

== TH FLOW =====================================================================
 Step     13 Time=  8.19100E-02 Dt=  4.09600E-02 [y] snes_conv_reason:   11
  newton =   1 [      13] linear =   133 [      1582] cuts =  0 [   0]
  --> max chng: dpmx=   3.5631E-05 dtmpmx=   7.0776E-06

== TH FLOW =====================================================================
 Step     14 Time=  1.00000E-01 Dt=  1.80900E-02 [y] snes_conv_reason:   11
  newton =   1 [      14] linear =   122 [      1704] cuts =  0 [   0]
  --> max chng: dpmx=   1.6863E-05 dtmpmx=   3.1258E-06

== TH FLOW =====================================================================
 Step     15 Time=  1.50000E-01 Dt=  5.00000E-02 [y] snes_conv_reason:   11
  newton =   1 [      15] linear =   130 [      1834] cuts =  0 [   0]
  --> max chng: dpmx=   5.5215E-05 dtmpmx=   8.6397E-06

== TH FLOW =====================================================================
 Step     16 Time=  2.00000E-01 Dt=  5.00000E-02 [y] snes_conv_reason:   11
  newton =   1 [      16] linear =   129 [      1963] cuts =  0 [   0]
  --> max chng: dpmx=   6.3749E-05 dtmpmx=   8.6396E-06

== TH FLOW =====================================================================
 Step     17 Time=  2.50000E-01 Dt=  5.00000E-02 [y] snes_conv_reason:    3
  newton =   3 [      19] linear =   394 [      2357] cuts =  0 [   0]
  --> max chng: dpmx=   1.4830E+03 dtmpmx=   3.5073E+00

== TH FLOW =====================================================================
 Step     18 Time=  3.00000E-01 Dt=  5.00000E-02 [y] snes_conv_reason:   11
  newton =   2 [      21] linear =   268 [      2625] cuts =  0 [   0]
  --> max chng: dpmx=   9.4964E+00 dtmpmx=   1.3377E+00

== TH FLOW =====================================================================
 Step     19 Time=  3.50000E-01 Dt=  5.00000E-02 [y] snes_conv_reason:   11
  newton =   2 [      23] linear =   266 [      2891] cuts =  0 [   0]
  --> max chng: dpmx=   4.7736E+00 dtmpmx=   8.5296E-01

== TH FLOW =====================================================================
 Step     20 Time=  4.00000E-01 Dt=  5.00000E-02 [y] snes_conv_reason:   11
  newton =   2 [      25] linear =   249 [      3140] cuts =  0 [   0]
  --> max chng: dpmx=   2.9373E+00 dtmpmx=   7.1440E-01

== TH FLOW =====================================================================
 Step     21 Time=  4.50000E-01 Dt=  5.00000E-02 [y] snes_conv_reason:   11
  newton =   2 [      27] linear =   262 [      3402] cuts =  0 [   0]
  --> max chng: dpmx=   2.7098E+00 dtmpmx=   5.6536E-01

== TH FLOW =====================================================================
 Step     22 Time=  5.00000E-01 Dt=  5.00000E-02 [y] snes_conv_reason:    3
  newton =   1 [      28] linear =   137 [      3539] cuts =  0 [   0]
  --> max chng: dpmx=   2.6072E+00 dtmpmx=   5.1842E-01

== TH FLOW =====================================================================
 Step     23 Time=  5.50000E-01 Dt=  5.00000E-02 [y] snes_conv_reason:    3
  newton =   1 [      29] linear =   138 [      3677] cuts =  0 [   0]
  --> max chng: dpmx=   2.5189E+00 dtmpmx=   4.5132E-01

== TH FLOW =====================================================================
 Step     24 Time=  6.00000E-01 Dt=  5.00000E-02 [y] snes_conv_reason:    3
  newton =   1 [      30] linear =   137 [      3814] cuts =  0 [   0]
  --> max chng: dpmx=   2.4386E+00 dtmpmx=   4.1758E-01

== TH FLOW =====================================================================
 Step     25 Time=  6.50000E-01 Dt=  5.00000E-02 [y] snes_conv_reason:    3
  newton =   1 [      31] linear =   132 [      3946] cuts =  0 [   0]
  --> max chng: dpmx=   2.3970E+00 dtmpmx=   3.8632E-01

== TH FLOW =====================================================================
 Step     26 Time=  7.00000E-01 Dt=  5.00000E-02 [y] snes_conv_reason:    3
  newton =   1 [      32] linear =   136 [      4082] cuts =  0 [   0]
  --> max chng: dpmx=   2.3382E+00 dtmpmx=   3.5175E-01

== TH FLOW =====================================================================
 Step     27 Time=  7.50000E-01 Dt=  5.00000E-02 [y] snes_conv_reason:    3
  newton =   1 [      33] linear =   137 [      4219] cuts =  0 [   0]
  --> max chng: dpmx=   2.3082E+00 dtmpmx=   3.3841E-01

== TH FLOW =====================================================================
 Step     28 Time=  8.00000E-01 Dt=  5.00000E-02 [y] snes_conv_reason:    3
  newton =   1 [      34] linear =   134 [      4353] cuts =  0 [   0]
  --> max chng: dpmx=   2.2627E+00 dtmpmx=   3.1739E-01

== TH FLOW =====================================================================
 Step     29 Time=  8.50000E-01 Dt=  5.00000E-02 [y] snes_conv_reason:    3
  newton =   1 [      35] linear =   137 [      4490] cuts =  0 [   0]
  --> max chng: dpmx=   2.2399E+00 dtmpmx=   2.9971E-01

== TH FLOW =====================================================================
 Step     30 Time=  9.00000E-01 Dt=  5.00000E-02 [y] snes_conv_reason:    3
  newton =   1 [      36] linear =   138 [      4628] cuts =  0 [   0]
  --> max chng: dpmx=   2.2029E+00 dtmpmx=   2.8980E-01

== TH FLOW =====================================================================
 Step     31 Time=  9.50000E-01 Dt=  5.00000E-02 [y] snes_conv_reason:    3
  newton =   1 [      37] linear =   138 [      4766] cuts =  0 [   0]
  --> max chng: dpmx=   2.1835E+00 dtmpmx=   2.7492E-01

== TH FLOW =====================================================================
 Step     32 Time=  1.00000E+00 Dt=  5.00000E-02 [y] snes_conv_reason:    3
  newton =   1 [      38] linear =   134 [      4900] cuts =  0 [   0]
  --> max chng: dpmx=   2.1519E+00 dtmpmx=   2.6418E-01

== TH FLOW =====================================================================
 Step     33 Time=  1.05000E+00 Dt=  5.00000E-02 [y] snes_conv_reason:    3
  newton =   1 [      39] linear =   139 [      5039] cuts =  0 [   0]
  --> max chng: dpmx=   2.1367E+00 dtmpmx=   2.5677E-01

== TH FLOW =====================================================================
 Step     34 Time=  1.10000E+00 Dt=  5.00000E-02 [y] snes_conv_reason:    3
  newton =   1 [      40] linear =   136 [      5175] cuts =  0 [   0]
  --> max chng: dpmx=   2.1107E+00 dtmpmx=   2.4577E-01

== TH FLOW =====================================================================
 Step     35 Time=  1.15000E+00 Dt=  5.00000E-02 [y] snes_conv_reason:    3
  newton =   1 [      41] linear =   133 [      5308] cuts =  0 [   0]
  --> max chng: dpmx=   2.0950E+00 dtmpmx=   2.3828E-01

== TH FLOW =====================================================================
 Step     36 Time=  1.20000E+00 Dt=  5.00000E-02 [y] snes_conv_reason:    3
  newton =   1 [      42] linear =   138 [      5446] cuts =  0 [   0]
  --> max chng: dpmx=   2.0747E+00 dtmpmx=   2.3266E-01

== TH FLOW =====================================================================
 Step     37 Time=  1.25000E+00 Dt=  5.00000E-02 [y] snes_conv_reason:    3
  newton =   1 [      43] linear =   139 [      5585] cuts =  0 [   0]
  --> max chng: dpmx=   2.0591E+00 dtmpmx=   2.2426E-01

== TH FLOW =====================================================================
 Step     38 Time=  1.30000E+00 Dt=  5.00000E-02 [y] snes_conv_reason:    3
  newton =   1 [      44] linear =   135 [      5720] cuts =  0 [   0]
  --> max chng: dpmx=   2.0423E+00 dtmpmx=   2.1845E-01

== TH FLOW =====================================================================
 Step     39 Time=  1.35000E+00 Dt=  5.00000E-02 [y] snes_conv_reason:    3
  newton =   1 [      45] linear =   138 [      5858] cuts =  0 [   0]
  --> max chng: dpmx=   2.0264E+00 dtmpmx=   2.1412E-01

== TH FLOW =====================================================================
 Step     40 Time=  1.40000E+00 Dt=  5.00000E-02 [y] snes_conv_reason:    3
  newton =   1 [      46] linear =   136 [      5994] cuts =  0 [   0]
  --> max chng: dpmx=   2.0127E+00 dtmpmx=   2.0755E-01

== TH FLOW =====================================================================
 Step     41 Time=  1.45000E+00 Dt=  5.00000E-02 [y] snes_conv_reason:    3
  newton =   1 [      47] linear =   137 [      6131] cuts =  0 [   0]
  --> max chng: dpmx=   1.9969E+00 dtmpmx=   2.0269E-01

== TH FLOW =====================================================================
 Step     42 Time=  1.50000E+00 Dt=  5.00000E-02 [y] snes_conv_reason:    3
  newton =   1 [      48] linear =   137 [      6268] cuts =  0 [   0]
  --> max chng: dpmx=   1.9860E+00 dtmpmx=   1.9931E-01

== TH FLOW =====================================================================
 Step     43 Time=  1.55000E+00 Dt=  5.00000E-02 [y] snes_conv_reason:    3
  newton =   1 [      49] linear =   138 [      6406] cuts =  0 [   0]
  --> max chng: dpmx=   1.9695E+00 dtmpmx=   1.9408E-01

== TH FLOW =====================================================================
 Step     44 Time=  1.60000E+00 Dt=  5.00000E-02 [y] snes_conv_reason:    3
  newton =   1 [      50] linear =   138 [      6544] cuts =  0 [   0]
  --> max chng: dpmx=   1.9611E+00 dtmpmx=   1.8978E-01

== TH FLOW =====================================================================
 Step     45 Time=  1.65000E+00 Dt=  5.00000E-02 [y] snes_conv_reason:    3
  newton =   1 [      51] linear =   137 [      6681] cuts =  0 [   0]
  --> max chng: dpmx=   1.9470E+00 dtmpmx=   1.8713E-01

== TH FLOW =====================================================================
 Step     46 Time=  1.70000E+00 Dt=  5.00000E-02 [y] snes_conv_reason:    3
  newton =   1 [      52] linear =   139 [      6820] cuts =  0 [   0]
  --> max chng: dpmx=   1.9374E+00 dtmpmx=   1.8290E-01

== TH FLOW =====================================================================
 Step     47 Time=  1.75000E+00 Dt=  5.00000E-02 [y] snes_conv_reason:    3
  newton =   1 [      53] linear =   141 [      6961] cuts =  0 [   0]
  --> max chng: dpmx=   1.9265E+00 dtmpmx=   1.7898E-01

== TH FLOW =====================================================================
 Step     48 Time=  1.80000E+00 Dt=  5.00000E-02 [y] snes_conv_reason:    3
  newton =   1 [      54] linear =   137 [      7098] cuts =  0 [   0]
  --> max chng: dpmx=   1.9159E+00 dtmpmx=   1.7688E-01

== TH FLOW =====================================================================
 Step     49 Time=  1.85000E+00 Dt=  5.00000E-02 [y] snes_conv_reason:    3
  newton =   1 [      55] linear =   141 [      7239] cuts =  0 [   0]
  --> max chng: dpmx=   1.9069E+00 dtmpmx=   1.7342E-01

== TH FLOW =====================================================================
 Step     50 Time=  1.90000E+00 Dt=  5.00000E-02 [y] snes_conv_reason:    3
  newton =   1 [      56] linear =   139 [      7378] cuts =  0 [   0]
  --> max chng: dpmx=   1.8954E+00 dtmpmx=   1.6975E-01

== TH FLOW =====================================================================
 Step     51 Time=  1.95000E+00 Dt=  5.00000E-02 [y] snes_conv_reason:    3
  newton =   1 [      57] linear =   136 [      7514] cuts =  0 [   0]
  --> max chng: dpmx=   1.8882E+00 dtmpmx=   1.6810E-01

== TH FLOW =====================================================================
 Step     52 Time=  2.00000E+00 Dt=  5.00000E-02 [y] snes_conv_reason:    3
  newton =   1 [      58] linear =   133 [      7647] cuts =  0 [   0]
  --> max chng: dpmx=   1.8769E+00 dtmpmx=   1.6524E-01

== TH FLOW =====================================================================
 Step     53 Time=  2.05000E+00 Dt=  5.00000E-02 [y] snes_conv_reason:    3
  newton =   1 [      59] linear =   140 [      7787] cuts =  0 [   0]
  --> max chng: dpmx=   1.8705E+00 dtmpmx=   1.6176E-01

== TH FLOW =====================================================================
 Step     54 Time=  2.10000E+00 Dt=  5.00000E-02 [y] snes_conv_reason:    3
  newton =   1 [      60] linear =   128 [      7915] cuts =  0 [   0]
  --> max chng: dpmx=   1.8608E+00 dtmpmx=   1.6045E-01

== TH FLOW =====================================================================
 Step     55 Time=  2.15000E+00 Dt=  5.00000E-02 [y] snes_conv_reason:    3
  newton =   1 [      61] linear =   139 [      8054] cuts =  0 [   0]
  --> max chng: dpmx=   1.8536E+00 dtmpmx=   1.5808E-01

== TH FLOW =====================================================================
 Step     56 Time=  2.20000E+00 Dt=  5.00000E-02 [y] snes_conv_reason:    3
  newton =   1 [      62] linear =   139 [      8193] cuts =  0 [   0]
  --> max chng: dpmx=   1.8454E+00 dtmpmx=   1.5475E-01

== TH FLOW =====================================================================
 Step     57 Time=  2.25000E+00 Dt=  5.00000E-02 [y] snes_conv_reason:    3
  newton =   1 [      63] linear =   139 [      8332] cuts =  0 [   0]
  --> max chng: dpmx=   1.8361E+00 dtmpmx=   1.5372E-01

== TH FLOW =====================================================================
 Step     58 Time=  2.30000E+00 Dt=  5.00000E-02 [y] snes_conv_reason:    3
  newton =   1 [      64] linear =   139 [      8471] cuts =  0 [   0]
  --> max chng: dpmx=   1.8311E+00 dtmpmx=   1.5173E-01

== TH FLOW =====================================================================
 Step     59 Time=  2.35000E+00 Dt=  5.00000E-02 [y] snes_conv_reason:    3
  newton =   1 [      65] linear =   132 [      8603] cuts =  0 [   0]
  --> max chng: dpmx=   1.8220E+00 dtmpmx=   1.4887E-01

== TH FLOW =====================================================================
 Step     60 Time=  2.40000E+00 Dt=  5.00000E-02 [y] snes_conv_reason:    3
  newton =   1 [      66] linear =   137 [      8740] cuts =  0 [   0]
  --> max chng: dpmx=   1.8162E+00 dtmpmx=   1.4772E-01

== TH FLOW =====================================================================
 Step     61 Time=  2.45000E+00 Dt=  5.00000E-02 [y] snes_conv_reason:    3
  newton =   1 [      67] linear =   137 [      8877] cuts =  0 [   0]
  --> max chng: dpmx=   1.8089E+00 dtmpmx=   1.4606E-01

== TH FLOW =====================================================================
 Step     62 Time=  2.50000E+00 Dt=  5.00000E-02 [y] snes_conv_reason:    3
  newton =   1 [      68] linear =   137 [      9014] cuts =  0 [   0]
  --> max chng: dpmx=   1.8014E+00 dtmpmx=   1.4360E-01

== TH FLOW =====================================================================
 Step     63 Time=  2.55000E+00 Dt=  5.00000E-02 [y] snes_conv_reason:    3
  newton =   1 [      69] linear =   133 [      9147] cuts =  0 [   0]
  --> max chng: dpmx=   1.7957E+00 dtmpmx=   1.4234E-01

== TH FLOW =====================================================================
 Step     64 Time=  2.60000E+00 Dt=  5.00000E-02 [y] snes_conv_reason:    3
  newton =   1 [      70] linear =   135 [      9282] cuts =  0 [   0]
  --> max chng: dpmx=   1.7873E+00 dtmpmx=   1.4094E-01

== TH FLOW =====================================================================
 Step     65 Time=  2.65000E+00 Dt=  5.00000E-02 [y] snes_conv_reason:    3
  newton =   1 [      71] linear =   139 [      9421] cuts =  0 [   0]
  --> max chng: dpmx=   1.7824E+00 dtmpmx=   1.3881E-01

== TH FLOW =====================================================================
 Step     66 Time=  2.70000E+00 Dt=  5.00000E-02 [y] snes_conv_reason:    3
  newton =   1 [      72] linear =   139 [      9560] cuts =  0 [   0]
  --> max chng: dpmx=   1.7763E+00 dtmpmx=   1.3746E-01

== TH FLOW =====================================================================
 Step     67 Time=  2.75000E+00 Dt=  5.00000E-02 [y] snes_conv_reason:    3
  newton =   1 [      73] linear =   136 [      9696] cuts =  0 [   0]
  --> max chng: dpmx=   1.7702E+00 dtmpmx=   1.3629E-01

== TH FLOW =====================================================================
 Step     68 Time=  2.80000E+00 Dt=  5.00000E-02 [y] snes_conv_reason:    3
  newton =   1 [      74] linear =   134 [      9830] cuts =  0 [   0]
  --> max chng: dpmx=   1.7642E+00 dtmpmx=   1.3444E-01

== TH FLOW =====================================================================
 Step     69 Time=  2.85000E+00 Dt=  5.00000E-02 [y] snes_conv_reason:    3
  newton =   1 [      75] linear =   139 [      9969] cuts =  0 [   0]
  --> max chng: dpmx=   1.7573E+00 dtmpmx=   1.3302E-01

== TH FLOW =====================================================================
 Step     70 Time=  2.90000E+00 Dt=  5.00000E-02 [y] snes_conv_reason:    3
  newton =   1 [      76] linear =   138 [     10107] cuts =  0 [   0]
  --> max chng: dpmx=   1.7530E+00 dtmpmx=   1.3204E-01

== TH FLOW =====================================================================
 Step     71 Time=  2.95000E+00 Dt=  5.00000E-02 [y] snes_conv_reason:    3
  newton =   1 [      77] linear =   136 [     10243] cuts =  0 [   0]
  --> max chng: dpmx=   1.7462E+00 dtmpmx=   1.3043E-01

== TH FLOW =====================================================================
 Step     72 Time=  3.00000E+00 Dt=  5.00000E-02 [y] snes_conv_reason:    3
  newton =   1 [      78] linear =   134 [     10377] cuts =  0 [   0]
  --> max chng: dpmx=   1.7411E+00 dtmpmx=   1.2895E-01

== TH FLOW =====================================================================
 Step     73 Time=  3.05000E+00 Dt=  5.00000E-02 [y] snes_conv_reason:    3
  newton =   1 [      79] linear =   131 [     10508] cuts =  0 [   0]
  --> max chng: dpmx=   1.7351E+00 dtmpmx=   1.2813E-01

== TH FLOW =====================================================================
 Step     74 Time=  3.10000E+00 Dt=  5.00000E-02 [y] snes_conv_reason:    3
  newton =   1 [      80] linear =   135 [     10643] cuts =  0 [   0]
  --> max chng: dpmx=   1.7300E+00 dtmpmx=   1.2673E-01

== TH FLOW =====================================================================
 Step     75 Time=  3.15000E+00 Dt=  5.00000E-02 [y] snes_conv_reason:    3
  newton =   1 [      81] linear =   136 [     10779] cuts =  0 [   0]
  --> max chng: dpmx=   1.7248E+00 dtmpmx=   1.2521E-01

== TH FLOW =====================================================================
 Step     76 Time=  3.20000E+00 Dt=  5.00000E-02 [y] snes_conv_reason:    3
  newton =   1 [      82] linear =   134 [     10913] cuts =  0 [   0]
  --> max chng: dpmx=   1.7191E+00 dtmpmx=   1.2452E-01

== TH FLOW =====================================================================
 Step     77 Time=  3.25000E+00 Dt=  5.00000E-02 [y] snes_conv_reason:    3
  newton =   1 [      83] linear =   135 [     11048] cuts =  0 [   0]
  --> max chng: dpmx=   1.7142E+00 dtmpmx=   1.2330E-01

== TH FLOW =====================================================================
 Step     78 Time=  3.30000E+00 Dt=  5.00000E-02 [y] snes_conv_reason:    3
  newton =   1 [      84] linear =   135 [     11183] cuts =  0 [   0]
  --> max chng: dpmx=   1.7093E+00 dtmpmx=   1.2174E-01

== TH FLOW =====================================================================
 Step     79 Time=  3.35000E+00 Dt=  5.00000E-02 [y] snes_conv_reason:    3
  newton =   1 [      85] linear =   134 [     11317] cuts =  0 [   0]
  --> max chng: dpmx=   1.7035E+00 dtmpmx=   1.2117E-01

== TH FLOW =====================================================================
 Step     80 Time=  3.40000E+00 Dt=  5.00000E-02 [y] snes_conv_reason:    3
  newton =   1 [      86] linear =   135 [     11452] cuts =  0 [   0]
  --> max chng: dpmx=   1.6996E+00 dtmpmx=   1.2010E-01

== TH FLOW =====================================================================
 Step     81 Time=  3.45000E+00 Dt=  5.00000E-02 [y] snes_conv_reason:    3
  newton =   1 [      87] linear =   135 [     11587] cuts =  0 [   0]
  --> max chng: dpmx=   1.6933E+00 dtmpmx=   1.1857E-01

== TH FLOW =====================================================================
 Step     82 Time=  3.50000E+00 Dt=  5.00000E-02 [y] snes_conv_reason:    3
  newton =   1 [      88] linear =   128 [     11715] cuts =  0 [   0]
  --> max chng: dpmx=   1.6893E+00 dtmpmx=   1.1805E-01

== TH FLOW =====================================================================
 Step     83 Time=  3.55000E+00 Dt=  5.00000E-02 [y] snes_conv_reason:    3
  newton =   1 [      89] linear =   135 [     11850] cuts =  0 [   0]
  --> max chng: dpmx=   1.6844E+00 dtmpmx=   1.1712E-01

== TH FLOW =====================================================================
 Step     84 Time=  3.60000E+00 Dt=  5.00000E-02 [y] snes_conv_reason:    3
  newton =   1 [      90] linear =   134 [     11984] cuts =  0 [   0]
  --> max chng: dpmx=   1.6793E+00 dtmpmx=   1.1575E-01

== TH FLOW =====================================================================
 Step     85 Time=  3.65000E+00 Dt=  5.00000E-02 [y] snes_conv_reason:    3
  newton =   1 [      91] linear =   128 [     12112] cuts =  0 [   0]
  --> max chng: dpmx=   1.6752E+00 dtmpmx=   1.1514E-01

== TH FLOW =====================================================================
 Step     86 Time=  3.70000E+00 Dt=  5.00000E-02 [y] snes_conv_reason:    3
  newton =   1 [      92] linear =   135 [     12247] cuts =  0 [   0]
  --> max chng: dpmx=   1.6693E+00 dtmpmx=   1.1432E-01

== TH FLOW =====================================================================
 Step     87 Time=  3.75000E+00 Dt=  5.00000E-02 [y] snes_conv_reason:    3
  newton =   1 [      93] linear =   135 [     12382] cuts =  0 [   0]
  --> max chng: dpmx=   1.6658E+00 dtmpmx=   1.1310E-01

== TH FLOW =====================================================================
 Step     88 Time=  3.80000E+00 Dt=  5.00000E-02 [y] snes_conv_reason:    3
  newton =   1 [      94] linear =   128 [     12510] cuts =  0 [   0]
  --> max chng: dpmx=   1.6607E+00 dtmpmx=   1.1240E-01

== TH FLOW =====================================================================
 Step     89 Time=  3.85000E+00 Dt=  5.00000E-02 [y] snes_conv_reason:    3
  newton =   1 [      95] linear =   135 [     12645] cuts =  0 [   0]
  --> max chng: dpmx=   1.6561E+00 dtmpmx=   1.1170E-01

== TH FLOW =====================================================================
 Step     90 Time=  3.90000E+00 Dt=  5.00000E-02 [y] snes_conv_reason:    3
  newton =   1 [      96] linear =   134 [     12779] cuts =  0 [   0]
  --> max chng: dpmx=   1.6524E+00 dtmpmx=   1.1060E-01

== TH FLOW =====================================================================
 Step     91 Time=  3.95000E+00 Dt=  5.00000E-02 [y] snes_conv_reason:    3
  newton =   1 [      97] linear =   139 [     12918] cuts =  0 [   0]
  --> max chng: dpmx=   1.6464E+00 dtmpmx=   1.0983E-01

== TH FLOW =====================================================================
 Step     92 Time=  4.00000E+00 Dt=  5.00000E-02 [y] snes_conv_reason:    3
  newton =   1 [      98] linear =   134 [     13052] cuts =  0 [   0]
  --> max chng: dpmx=   1.6437E+00 dtmpmx=   1.0922E-01

== TH FLOW =====================================================================
 Step     93 Time=  4.05000E+00 Dt=  5.00000E-02 [y] snes_conv_reason:    3
  newton =   1 [      99] linear =   134 [     13186] cuts =  0 [   0]
  --> max chng: dpmx=   1.6387E+00 dtmpmx=   1.0824E-01

== TH FLOW =====================================================================
 Step     94 Time=  4.10000E+00 Dt=  5.00000E-02 [y] snes_conv_reason:    3
  newton =   1 [     100] linear =   134 [     13320] cuts =  0 [   0]
  --> max chng: dpmx=   1.6340E+00 dtmpmx=   1.0741E-01

== TH FLOW =====================================================================
 Step     95 Time=  4.15000E+00 Dt=  5.00000E-02 [y] snes_conv_reason:    3
  newton =   1 [     101] linear =   132 [     13452] cuts =  0 [   0]
  --> max chng: dpmx=   1.6304E+00 dtmpmx=   1.0688E-01

== TH FLOW =====================================================================
 Step     96 Time=  4.20000E+00 Dt=  5.00000E-02 [y] snes_conv_reason:    3
  newton =   1 [     102] linear =   132 [     13584] cuts =  0 [   0]
  --> max chng: dpmx=   1.6247E+00 dtmpmx=   1.0600E-01

== TH FLOW =====================================================================
 Step     97 Time=  4.25000E+00 Dt=  5.00000E-02 [y] snes_conv_reason:    3
  newton =   1 [     103] linear =   136 [     13720] cuts =  0 [   0]
  --> max chng: dpmx=   1.6216E+00 dtmpmx=   1.0512E-01

== TH FLOW =====================================================================
 Step     98 Time=  4.30000E+00 Dt=  5.00000E-02 [y] snes_conv_reason:    3
  newton =   1 [     104] linear =   139 [     13859] cuts =  0 [   0]
  --> max chng: dpmx=   1.6171E+00 dtmpmx=   1.0466E-01

== TH FLOW =====================================================================
 Step     99 Time=  4.35000E+00 Dt=  5.00000E-02 [y] snes_conv_reason:    3
  newton =   1 [     105] linear =   137 [     13996] cuts =  0 [   0]
  --> max chng: dpmx=   1.6129E+00 dtmpmx=   1.0387E-01

== TH FLOW =====================================================================
 Step    100 Time=  4.40000E+00 Dt=  5.00000E-02 [y] snes_conv_reason:    3
  newton =   1 [     106] linear =   136 [     14132] cuts =  0 [   0]
  --> max chng: dpmx=   1.6094E+00 dtmpmx=   1.0295E-01

== TH FLOW =====================================================================
 Step    101 Time=  4.45000E+00 Dt=  5.00000E-02 [y] snes_conv_reason:    3
  newton =   1 [     107] linear =   137 [     14269] cuts =  0 [   0]
  --> max chng: dpmx=   1.6042E+00 dtmpmx=   1.0256E-01

== TH FLOW =====================================================================
 Step    102 Time=  4.50000E+00 Dt=  5.00000E-02 [y] snes_conv_reason:    3
  newton =   1 [     108] linear =   138 [     14407] cuts =  0 [   0]
  --> max chng: dpmx=   1.6005E+00 dtmpmx=   1.0185E-01

== TH FLOW =====================================================================
 Step    103 Time=  4.55000E+00 Dt=  5.00000E-02 [y] snes_conv_reason:    3
  newton =   1 [     109] linear =   136 [     14543] cuts =  0 [   0]
  --> max chng: dpmx=   1.5961E+00 dtmpmx=   1.0089E-01

== TH FLOW =====================================================================
 Step    104 Time=  4.60000E+00 Dt=  5.00000E-02 [y] snes_conv_reason:    3
  newton =   1 [     110] linear =   131 [     14674] cuts =  0 [   0]
  --> max chng: dpmx=   1.5930E+00 dtmpmx=   1.0056E-01

== TH FLOW =====================================================================
 Step    105 Time=  4.65000E+00 Dt=  5.00000E-02 [y] snes_conv_reason:    3
  newton =   1 [     111] linear =   134 [     14808] cuts =  0 [   0]
  --> max chng: dpmx=   1.5888E+00 dtmpmx=   9.9929E-02

== TH FLOW =====================================================================
 Step    106 Time=  4.70000E+00 Dt=  5.00000E-02 [y] snes_conv_reason:    3
  newton =   1 [     112] linear =   133 [     14941] cuts =  0 [   0]
  --> max chng: dpmx=   1.5839E+00 dtmpmx=   9.9006E-02

== TH FLOW =====================================================================
 Step    107 Time=  4.75000E+00 Dt=  5.00000E-02 [y] snes_conv_reason:    3
  newton =   1 [     113] linear =   137 [     15078] cuts =  0 [   0]
  --> max chng: dpmx=   1.5807E+00 dtmpmx=   9.8657E-02

== TH FLOW =====================================================================
 Step    108 Time=  4.80000E+00 Dt=  5.00000E-02 [y] snes_conv_reason:    3
  newton =   1 [     114] linear =   133 [     15211] cuts =  0 [   0]
  --> max chng: dpmx=   1.5768E+00 dtmpmx=   9.8093E-02

== TH FLOW =====================================================================
 Step    109 Time=  4.85000E+00 Dt=  5.00000E-02 [y] snes_conv_reason:    3
  newton =   1 [     115] linear =   137 [     15348] cuts =  0 [   0]
  --> max chng: dpmx=   1.5721E+00 dtmpmx=   9.7251E-02

== TH FLOW =====================================================================
 Step    110 Time=  4.90000E+00 Dt=  5.00000E-02 [y] snes_conv_reason:    3
  newton =   1 [     116] linear =   123 [     15471] cuts =  0 [   0]
  --> max chng: dpmx=   1.5690E+00 dtmpmx=   9.6841E-02

== TH FLOW =====================================================================
 Step    111 Time=  4.95000E+00 Dt=  5.00000E-02 [y] snes_conv_reason:    3
  newton =   1 [     117] linear =   134 [     15605] cuts =  0 [   0]
  --> max chng: dpmx=   1.5644E+00 dtmpmx=   9.6338E-02

== TH FLOW =====================================================================
 Step    112 Time=  5.00000E+00 Dt=  5.00000E-02 [y] snes_conv_reason:    3
  newton =   1 [     118] linear =   133 [     15738] cuts =  0 [   0]
  --> max chng: dpmx=   1.5609E+00 dtmpmx=   9.5569E-02

== TH FLOW =====================================================================
 Step    113 Time=  5.05000E+00 Dt=  5.00000E-02 [y] snes_conv_reason:    3
  newton =   1 [     119] linear =   131 [     15869] cuts =  0 [   0]
  --> max chng: dpmx=   1.5572E+00 dtmpmx=   9.5105E-02

== TH FLOW =====================================================================
 Step    114 Time=  5.10000E+00 Dt=  5.00000E-02 [y] snes_conv_reason:    3
  newton =   1 [     120] linear =   135 [     16004] cuts =  0 [   0]
  --> max chng: dpmx=   1.5528E+00 dtmpmx=   9.4658E-02

== TH FLOW =====================================================================
 Step    115 Time=  5.15000E+00 Dt=  5.00000E-02 [y] snes_conv_reason:    3
  newton =   1 [     121] linear =   138 [     16142] cuts =  0 [   0]
  --> max chng: dpmx=   1.5496E+00 dtmpmx=   9.3957E-02

== TH FLOW =====================================================================
 Step    116 Time=  5.20000E+00 Dt=  5.00000E-02 [y] snes_conv_reason:    3
  newton =   1 [     122] linear =   135 [     16277] cuts =  0 [   0]
  --> max chng: dpmx=   1.5456E+00 dtmpmx=   9.3444E-02

== TH FLOW =====================================================================
 Step    117 Time=  5.25000E+00 Dt=  5.00000E-02 [y] snes_conv_reason:    3
  newton =   1 [     123] linear =   135 [     16412] cuts =  0 [   0]
  --> max chng: dpmx=   1.5419E+00 dtmpmx=   9.3048E-02

== TH FLOW =====================================================================
 Step    118 Time=  5.30000E+00 Dt=  5.00000E-02 [y] snes_conv_reason:    3
  newton =   1 [     124] linear =   134 [     16546] cuts =  0 [   0]
  --> max chng: dpmx=   1.5384E+00 dtmpmx=   9.2409E-02

== TH FLOW =====================================================================
 Step    119 Time=  5.35000E+00 Dt=  5.00000E-02 [y] snes_conv_reason:    3
  newton =   1 [     125] linear =   134 [     16680] cuts =  0 [   0]
  --> max chng: dpmx=   1.5338E+00 dtmpmx=   9.1852E-02

== TH FLOW =====================================================================
 Step    120 Time=  5.40000E+00 Dt=  5.00000E-02 [y] snes_conv_reason:    3
  newton =   1 [     126] linear =   135 [     16815] cuts =  0 [   0]
  --> max chng: dpmx=   1.5306E+00 dtmpmx=   9.1504E-02

== TH FLOW =====================================================================
 Step    121 Time=  5.45000E+00 Dt=  5.00000E-02 [y] snes_conv_reason:    3
  newton =   1 [     127] linear =   132 [     16947] cuts =  0 [   0]
  --> max chng: dpmx=   1.5269E+00 dtmpmx=   9.0921E-02

== TH FLOW =====================================================================
 Step    122 Time=  5.50000E+00 Dt=  5.00000E-02 [y] snes_conv_reason:    3
  newton =   1 [     128] linear =   133 [     17080] cuts =  0 [   0]
  --> max chng: dpmx=   1.5232E+00 dtmpmx=   9.0325E-02

== TH FLOW =====================================================================
 Step    123 Time=  5.55000E+00 Dt=  5.00000E-02 [y] snes_conv_reason:    3
  newton =   1 [     129] linear =   134 [     17214] cuts =  0 [   0]
  --> max chng: dpmx=   1.5194E+00 dtmpmx=   9.0020E-02

== TH FLOW =====================================================================
 Step    124 Time=  5.60000E+00 Dt=  5.00000E-02 [y] snes_conv_reason:    3
  newton =   1 [     130] linear =   134 [     17348] cuts =  0 [   0]
  --> max chng: dpmx=   1.5158E+00 dtmpmx=   8.9489E-02

== TH FLOW =====================================================================
 Step    125 Time=  5.65000E+00 Dt=  5.00000E-02 [y] snes_conv_reason:    3
  newton =   1 [     131] linear =   132 [     17480] cuts =  0 [   0]
  --> max chng: dpmx=   1.5122E+00 dtmpmx=   8.8858E-02

== TH FLOW =====================================================================
 Step    126 Time=  5.70000E+00 Dt=  5.00000E-02 [y] snes_conv_reason:    3
  newton =   1 [     132] linear =   137 [     17617] cuts =  0 [   0]
  --> max chng: dpmx=   1.5083E+00 dtmpmx=   8.8592E-02

== TH FLOW =====================================================================
 Step    127 Time=  5.75000E+00 Dt=  5.00000E-02 [y] snes_conv_reason:    3
  newton =   1 [     133] linear =   137 [     17754] cuts =  0 [   0]
  --> max chng: dpmx=   1.5047E+00 dtmpmx=   8.8110E-02

== TH FLOW =====================================================================
 Step    128 Time=  5.80000E+00 Dt=  5.00000E-02 [y] snes_conv_reason:    3
  newton =   1 [     134] linear =   135 [     17889] cuts =  0 [   0]
  --> max chng: dpmx=   1.5018E+00 dtmpmx=   8.7447E-02

== TH FLOW =====================================================================
 Step    129 Time=  5.85000E+00 Dt=  5.00000E-02 [y] snes_conv_reason:    3
  newton =   1 [     135] linear =   137 [     18026] cuts =  0 [   0]
  --> max chng: dpmx=   1.4971E+00 dtmpmx=   8.7218E-02

== TH FLOW =====================================================================
 Step    130 Time=  5.90000E+00 Dt=  5.00000E-02 [y] snes_conv_reason:    3
  newton =   1 [     136] linear =   131 [     18157] cuts =  0 [   0]
  --> max chng: dpmx=   1.4937E+00 dtmpmx=   8.6780E-02

== TH FLOW =====================================================================
 Step    131 Time=  5.95000E+00 Dt=  5.00000E-02 [y] snes_conv_reason:    3
  newton =   1 [     137] linear =   130 [     18287] cuts =  0 [   0]
  --> max chng: dpmx=   1.4912E+00 dtmpmx=   8.6141E-02

== TH FLOW =====================================================================
 Step    132 Time=  6.00000E+00 Dt=  5.00000E-02 [y] snes_conv_reason:    3
  newton =   1 [     138] linear =   131 [     18418] cuts =  0 [   0]
  --> max chng: dpmx=   1.4865E+00 dtmpmx=   8.5893E-02

== TH FLOW =====================================================================
 Step    133 Time=  6.05000E+00 Dt=  5.00000E-02 [y] snes_conv_reason:    3
  newton =   1 [     139] linear =   135 [     18553] cuts =  0 [   0]
  --> max chng: dpmx=   1.4837E+00 dtmpmx=   8.5497E-02

== TH FLOW =====================================================================
 Step    134 Time=  6.10000E+00 Dt=  5.00000E-02 [y] snes_conv_reason:    3
  newton =   1 [     140] linear =   134 [     18687] cuts =  0 [   0]
  --> max chng: dpmx=   1.4797E+00 dtmpmx=   8.4906E-02

== TH FLOW =====================================================================
 Step    135 Time=  6.15000E+00 Dt=  5.00000E-02 [y] snes_conv_reason:    3
  newton =   1 [     141] linear =   114 [     18801] cuts =  0 [   0]
  --> max chng: dpmx=   1.4755E+00 dtmpmx=   8.4616E-02

== TH FLOW =====================================================================
 Step    136 Time=  6.20000E+00 Dt=  5.00000E-02 [y] snes_conv_reason:    3
  newton =   1 [     142] linear =   136 [     18937] cuts =  0 [   0]
  --> max chng: dpmx=   1.4737E+00 dtmpmx=   8.4258E-02

== TH FLOW =====================================================================
 Step    137 Time=  6.25000E+00 Dt=  5.00000E-02 [y] snes_conv_reason:    3
  newton =   1 [     143] linear =   137 [     19074] cuts =  0 [   0]
  --> max chng: dpmx=   1.4684E+00 dtmpmx=   8.3712E-02

== TH FLOW =====================================================================
 Step    138 Time=  6.30000E+00 Dt=  5.00000E-02 [y] snes_conv_reason:    3
  newton =   1 [     144] linear =   121 [     19195] cuts =  0 [   0]
  --> max chng: dpmx=   1.4663E+00 dtmpmx=   8.3382E-02

== TH FLOW =====================================================================
 Step    139 Time=  6.35000E+00 Dt=  5.00000E-02 [y] snes_conv_reason:    3
  newton =   1 [     145] linear =   125 [     19320] cuts =  0 [   0]
  --> max chng: dpmx=   1.4621E+00 dtmpmx=   8.3059E-02

== TH FLOW =====================================================================
 Step    140 Time=  6.40000E+00 Dt=  5.00000E-02 [y] snes_conv_reason:    3
  newton =   1 [     146] linear =   135 [     19455] cuts =  0 [   0]
  --> max chng: dpmx=   1.4584E+00 dtmpmx=   8.2555E-02

== TH FLOW =====================================================================
 Step    141 Time=  6.45000E+00 Dt=  5.00000E-02 [y] snes_conv_reason:    3
  newton =   1 [     147] linear =   129 [     19584] cuts =  0 [   0]
  --> max chng: dpmx=   1.4549E+00 dtmpmx=   8.2190E-02

== TH FLOW =====================================================================
 Step    142 Time=  6.50000E+00 Dt=  5.00000E-02 [y] snes_conv_reason:    3
  newton =   1 [     148] linear =   135 [     19719] cuts =  0 [   0]
  --> max chng: dpmx=   1.4524E+00 dtmpmx=   8.1900E-02

== TH FLOW =====================================================================
 Step    143 Time=  6.55000E+00 Dt=  5.00000E-02 [y] snes_conv_reason:    3
  newton =   1 [     149] linear =   135 [     19854] cuts =  0 [   0]
  --> max chng: dpmx=   1.4481E+00 dtmpmx=   8.1435E-02

== TH FLOW =====================================================================
 Step    144 Time=  6.60000E+00 Dt=  5.00000E-02 [y] snes_conv_reason:    3
  newton =   1 [     150] linear =   133 [     19987] cuts =  0 [   0]
  --> max chng: dpmx=   1.4450E+00 dtmpmx=   8.1036E-02

== TH FLOW =====================================================================
 Step    145 Time=  6.65000E+00 Dt=  5.00000E-02 [y] snes_conv_reason:    3
  newton =   1 [     151] linear =   137 [     20124] cuts =  0 [   0]
  --> max chng: dpmx=   1.4410E+00 dtmpmx=   8.0778E-02

== TH FLOW =====================================================================
 Step    146 Time=  6.70000E+00 Dt=  5.00000E-02 [y] snes_conv_reason:    3
  newton =   1 [     152] linear =   137 [     20261] cuts =  0 [   0]
  --> max chng: dpmx=   1.4380E+00 dtmpmx=   8.0349E-02

== TH FLOW =====================================================================
 Step    147 Time=  6.75000E+00 Dt=  5.00000E-02 [y] snes_conv_reason:    3
  newton =   1 [     153] linear =   129 [     20390] cuts =  0 [   0]
  --> max chng: dpmx=   1.4346E+00 dtmpmx=   7.9920E-02

== TH FLOW =====================================================================
 Step    148 Time=  6.80000E+00 Dt=  5.00000E-02 [y] snes_conv_reason:    3
  newton =   1 [     154] linear =   137 [     20527] cuts =  0 [   0]
  --> max chng: dpmx=   1.4309E+00 dtmpmx=   7.9690E-02

== TH FLOW =====================================================================
 Step    149 Time=  6.85000E+00 Dt=  5.00000E-02 [y] snes_conv_reason:    3
  newton =   1 [     155] linear =   136 [     20663] cuts =  0 [   0]
  --> max chng: dpmx=   1.4275E+00 dtmpmx=   7.9296E-02

== TH FLOW =====================================================================
 Step    150 Time=  6.90000E+00 Dt=  5.00000E-02 [y] snes_conv_reason:    3
  newton =   1 [     156] linear =   129 [     20792] cuts =  0 [   0]
  --> max chng: dpmx=   1.4249E+00 dtmpmx=   7.8839E-02

== TH FLOW =====================================================================
 Step    151 Time=  6.95000E+00 Dt=  5.00000E-02 [y] snes_conv_reason:    3
  newton =   1 [     157] linear =   130 [     20922] cuts =  0 [   0]
  --> max chng: dpmx=   1.4202E+00 dtmpmx=   7.8636E-02

== TH FLOW =====================================================================
 Step    152 Time=  7.00000E+00 Dt=  5.00000E-02 [y] snes_conv_reason:    3
  newton =   1 [     158] linear =   131 [     21053] cuts =  0 [   0]
  --> max chng: dpmx=   1.4182E+00 dtmpmx=   7.8273E-02

== TH FLOW =====================================================================
 Step    153 Time=  7.05000E+00 Dt=  5.00000E-02 [y] snes_conv_reason:    3
  newton =   1 [     159] linear =   134 [     21187] cuts =  0 [   0]
  --> max chng: dpmx=   1.4140E+00 dtmpmx=   7.7791E-02

== TH FLOW =====================================================================
 Step    154 Time=  7.10000E+00 Dt=  5.00000E-02 [y] snes_conv_reason:    3
  newton =   1 [     160] linear =   131 [     21318] cuts =  0 [   0]
  --> max chng: dpmx=   1.4109E+00 dtmpmx=   7.7613E-02

== TH FLOW =====================================================================
 Step    155 Time=  7.15000E+00 Dt=  5.00000E-02 [y] snes_conv_reason:    3
  newton =   1 [     161] linear =   130 [     21448] cuts =  0 [   0]
  --> max chng: dpmx=   1.4073E+00 dtmpmx=   7.7280E-02

== TH FLOW =====================================================================
 Step    156 Time=  7.20000E+00 Dt=  5.00000E-02 [y] snes_conv_reason:    3
  newton =   1 [     162] linear =   133 [     21581] cuts =  0 [   0]
  --> max chng: dpmx=   1.4043E+00 dtmpmx=   7.6797E-02

== TH FLOW =====================================================================
 Step    157 Time=  7.25000E+00 Dt=  5.00000E-02 [y] snes_conv_reason:    3
  newton =   1 [     163] linear =   136 [     21717] cuts =  0 [   0]
  --> max chng: dpmx=   1.4005E+00 dtmpmx=   7.6620E-02

== TH FLOW =====================================================================
 Step    158 Time=  7.30000E+00 Dt=  5.00000E-02 [y] snes_conv_reason:    3
  newton =   1 [     164] linear =   133 [     21850] cuts =  0 [   0]
  --> max chng: dpmx=   1.3974E+00 dtmpmx=   7.6315E-02

== TH FLOW =====================================================================
 Step    159 Time=  7.35000E+00 Dt=  5.00000E-02 [y] snes_conv_reason:    3
  newton =   1 [     165] linear =   134 [     21984] cuts =  0 [   0]
  --> max chng: dpmx=   1.3942E+00 dtmpmx=   7.5865E-02

== TH FLOW =====================================================================
 Step    160 Time=  7.40000E+00 Dt=  5.00000E-02 [y] snes_conv_reason:    3
  newton =   1 [     166] linear =   133 [     22117] cuts =  0 [   0]
  --> max chng: dpmx=   1.3906E+00 dtmpmx=   7.5656E-02

== TH FLOW =====================================================================
 Step    161 Time=  7.45000E+00 Dt=  5.00000E-02 [y] snes_conv_reason:    3
  newton =   1 [     167] linear =   131 [     22248] cuts =  0 [   0]
  --> max chng: dpmx=   1.3874E+00 dtmpmx=   7.5377E-02

== TH FLOW =====================================================================
 Step    162 Time=  7.50000E+00 Dt=  5.00000E-02 [y] snes_conv_reason:    3
  newton =   1 [     168] linear =   134 [     22382] cuts =  0 [   0]
  --> max chng: dpmx=   1.3839E+00 dtmpmx=   7.4957E-02

== TH FLOW =====================================================================
 Step    163 Time=  7.55000E+00 Dt=  5.00000E-02 [y] snes_conv_reason:    3
  newton =   1 [     169] linear =   135 [     22517] cuts =  0 [   0]
  --> max chng: dpmx=   1.3808E+00 dtmpmx=   7.4718E-02

== TH FLOW =====================================================================
 Step    164 Time=  7.60000E+00 Dt=  5.00000E-02 [y] snes_conv_reason:    3
  newton =   1 [     170] linear =   129 [     22646] cuts =  0 [   0]
  --> max chng: dpmx=   1.3769E+00 dtmpmx=   7.4464E-02

== TH FLOW =====================================================================
 Step    165 Time=  7.65000E+00 Dt=  5.00000E-02 [y] snes_conv_reason:    3
  newton =   1 [     171] linear =   130 [     22776] cuts =  0 [   0]
  --> max chng: dpmx=   1.3747E+00 dtmpmx=   7.4073E-02

== TH FLOW =====================================================================
 Step    166 Time=  7.70000E+00 Dt=  5.00000E-02 [y] snes_conv_reason:    3
  newton =   1 [     172] linear =   136 [     22912] cuts =  0 [   0]
  --> max chng: dpmx=   1.3708E+00 dtmpmx=   7.3807E-02

== TH FLOW =====================================================================
 Step    167 Time=  7.75000E+00 Dt=  5.00000E-02 [y] snes_conv_reason:    3
  newton =   1 [     173] linear =   135 [     23047] cuts =  0 [   0]
  --> max chng: dpmx=   1.3678E+00 dtmpmx=   7.3576E-02

== TH FLOW =====================================================================
 Step    168 Time=  7.80000E+00 Dt=  5.00000E-02 [y] snes_conv_reason:    3
  newton =   1 [     174] linear =   136 [     23183] cuts =  0 [   0]
  --> max chng: dpmx=   1.3641E+00 dtmpmx=   7.3212E-02

== TH FLOW =====================================================================
 Step    169 Time=  7.85000E+00 Dt=  5.00000E-02 [y] snes_conv_reason:    3
  newton =   1 [     175] linear =   134 [     23317] cuts =  0 [   0]
  --> max chng: dpmx=   1.3609E+00 dtmpmx=   7.2920E-02

== TH FLOW =====================================================================
 Step    170 Time=  7.90000E+00 Dt=  5.00000E-02 [y] snes_conv_reason:    3
  newton =   1 [     176] linear =   134 [     23451] cuts =  0 [   0]
  --> max chng: dpmx=   1.3578E+00 dtmpmx=   7.2711E-02

== TH FLOW =====================================================================
 Step    171 Time=  7.95000E+00 Dt=  5.00000E-02 [y] snes_conv_reason:    3
  newton =   1 [     177] linear =   125 [     23576] cuts =  0 [   0]
  --> max chng: dpmx=   1.3547E+00 dtmpmx=   7.2372E-02

== TH FLOW =====================================================================
 Step    172 Time=  8.00000E+00 Dt=  5.00000E-02 [y] snes_conv_reason:    3
  newton =   1 [     178] linear =   120 [     23696] cuts =  0 [   0]
  --> max chng: dpmx=   1.3512E+00 dtmpmx=   7.2056E-02

== TH FLOW =====================================================================
 Step    173 Time=  8.05000E+00 Dt=  5.00000E-02 [y] snes_conv_reason:    3
  newton =   1 [     179] linear =   135 [     23831] cuts =  0 [   0]
  --> max chng: dpmx=   1.3482E+00 dtmpmx=   7.1868E-02

== TH FLOW =====================================================================
 Step    174 Time=  8.10000E+00 Dt=  5.00000E-02 [y] snes_conv_reason:    3
  newton =   1 [     180] linear =   134 [     23965] cuts =  0 [   0]
  --> max chng: dpmx=   1.3439E+00 dtmpmx=   7.1554E-02

== TH FLOW =====================================================================
 Step    175 Time=  8.15000E+00 Dt=  5.00000E-02 [y] snes_conv_reason:    3
  newton =   1 [     181] linear =   136 [     24101] cuts =  0 [   0]
  --> max chng: dpmx=   1.3420E+00 dtmpmx=   7.1216E-02

== TH FLOW =====================================================================
 Step    176 Time=  8.20000E+00 Dt=  5.00000E-02 [y] snes_conv_reason:    3
  newton =   1 [     182] linear =   130 [     24231] cuts =  0 [   0]
  --> max chng: dpmx=   1.3381E+00 dtmpmx=   7.1047E-02

== TH FLOW =====================================================================
 Step    177 Time=  8.25000E+00 Dt=  5.00000E-02 [y] snes_conv_reason:    3
  newton =   1 [     183] linear =   117 [     24348] cuts =  0 [   0]
  --> max chng: dpmx=   1.3347E+00 dtmpmx=   7.0755E-02

== TH FLOW =====================================================================
 Step    178 Time=  8.30000E+00 Dt=  5.00000E-02 [y] snes_conv_reason:    3
  newton =   1 [     184] linear =   135 [     24483] cuts =  0 [   0]
  --> max chng: dpmx=   1.3321E+00 dtmpmx=   7.0396E-02

== TH FLOW =====================================================================
 Step    179 Time=  8.35000E+00 Dt=  5.00000E-02 [y] snes_conv_reason:    3
  newton =   1 [     185] linear =   137 [     24620] cuts =  0 [   0]
  --> max chng: dpmx=   1.3284E+00 dtmpmx=   7.0246E-02

== TH FLOW =====================================================================
 Step    180 Time=  8.40000E+00 Dt=  5.00000E-02 [y] snes_conv_reason:    3
  newton =   1 [     186] linear =   127 [     24747] cuts =  0 [   0]
  --> max chng: dpmx=   1.3256E+00 dtmpmx=   6.9976E-02

== TH FLOW =====================================================================
 Step    181 Time=  8.45000E+00 Dt=  5.00000E-02 [y] snes_conv_reason:    3
  newton =   1 [     187] linear =   141 [     24888] cuts =  0 [   0]
  --> max chng: dpmx=   1.3221E+00 dtmpmx=   6.9598E-02

== TH FLOW =====================================================================
 Step    182 Time=  8.50000E+00 Dt=  5.00000E-02 [y] snes_conv_reason:    3
  newton =   1 [     188] linear =   137 [     25025] cuts =  0 [   0]
  --> max chng: dpmx=   1.3188E+00 dtmpmx=   6.9465E-02

== TH FLOW =====================================================================
 Step    183 Time=  8.55000E+00 Dt=  5.00000E-02 [y] snes_conv_reason:    3
  newton =   1 [     189] linear =   136 [     25161] cuts =  0 [   0]
  --> max chng: dpmx=   1.3157E+00 dtmpmx=   6.9215E-02

== TH FLOW =====================================================================
 Step    184 Time=  8.60000E+00 Dt=  5.00000E-02 [y] snes_conv_reason:    3
  newton =   1 [     190] linear =   136 [     25297] cuts =  0 [   0]
  --> max chng: dpmx=   1.3126E+00 dtmpmx=   6.8852E-02

== TH FLOW =====================================================================
 Step    185 Time=  8.65000E+00 Dt=  5.00000E-02 [y] snes_conv_reason:    3
  newton =   1 [     191] linear =   133 [     25430] cuts =  0 [   0]
  --> max chng: dpmx=   1.3091E+00 dtmpmx=   6.8703E-02

== TH FLOW =====================================================================
 Step    186 Time=  8.70000E+00 Dt=  5.00000E-02 [y] snes_conv_reason:    3
  newton =   1 [     192] linear =   132 [     25562] cuts =  0 [   0]
  --> max chng: dpmx=   1.3059E+00 dtmpmx=   6.8472E-02

== TH FLOW =====================================================================
 Step    187 Time=  8.75000E+00 Dt=  5.00000E-02 [y] snes_conv_reason:    3
  newton =   1 [     193] linear =   133 [     25695] cuts =  0 [   0]
  --> max chng: dpmx=   1.3029E+00 dtmpmx=   6.8131E-02

== TH FLOW =====================================================================
 Step    188 Time=  8.80000E+00 Dt=  5.00000E-02 [y] snes_conv_reason:    3
  newton =   1 [     194] linear =   130 [     25825] cuts =  0 [   0]
  --> max chng: dpmx=   1.2999E+00 dtmpmx=   6.7958E-02

== TH FLOW =====================================================================
 Step    189 Time=  8.85000E+00 Dt=  5.00000E-02 [y] snes_conv_reason:    3
  newton =   1 [     195] linear =   135 [     25960] cuts =  0 [   0]
  --> max chng: dpmx=   1.2966E+00 dtmpmx=   6.7747E-02

== TH FLOW =====================================================================
 Step    190 Time=  8.90000E+00 Dt=  5.00000E-02 [y] snes_conv_reason:    3
  newton =   1 [     196] linear =   137 [     26097] cuts =  0 [   0]
  --> max chng: dpmx=   1.2933E+00 dtmpmx=   6.7426E-02

== TH FLOW =====================================================================
 Step    191 Time=  8.95000E+00 Dt=  5.00000E-02 [y] snes_conv_reason:    3
  newton =   1 [     197] linear =   137 [     26234] cuts =  0 [   0]
  --> max chng: dpmx=   1.2900E+00 dtmpmx=   6.7232E-02

== TH FLOW =====================================================================
 Step    192 Time=  9.00000E+00 Dt=  5.00000E-02 [y] snes_conv_reason:    3
  newton =   1 [     198] linear =   130 [     26364] cuts =  0 [   0]
  --> max chng: dpmx=   1.2872E+00 dtmpmx=   6.7037E-02

== TH FLOW =====================================================================
 Step    193 Time=  9.05000E+00 Dt=  5.00000E-02 [y] snes_conv_reason:    3
  newton =   1 [     199] linear =   132 [     26496] cuts =  0 [   0]
  --> max chng: dpmx=   1.2832E+00 dtmpmx=   6.6737E-02

== TH FLOW =====================================================================
 Step    194 Time=  9.10000E+00 Dt=  5.00000E-02 [y] snes_conv_reason:    3
  newton =   1 [     200] linear =   134 [     26630] cuts =  0 [   0]
  --> max chng: dpmx=   1.2812E+00 dtmpmx=   6.6521E-02

== TH FLOW =====================================================================
 Step    195 Time=  9.15000E+00 Dt=  5.00000E-02 [y] snes_conv_reason:    3
  newton =   1 [     201] linear =   135 [     26765] cuts =  0 [   0]
  --> max chng: dpmx=   1.2774E+00 dtmpmx=   6.6344E-02

== TH FLOW =====================================================================
 Step    196 Time=  9.20000E+00 Dt=  5.00000E-02 [y] snes_conv_reason:    3
  newton =   1 [     202] linear =   128 [     26893] cuts =  0 [   0]
  --> max chng: dpmx=   1.2741E+00 dtmpmx=   6.6062E-02

== TH FLOW =====================================================================
 Step    197 Time=  9.25000E+00 Dt=  5.00000E-02 [y] snes_conv_reason:    3
  newton =   1 [     203] linear =   130 [     27023] cuts =  0 [   0]
  --> max chng: dpmx=   1.2716E+00 dtmpmx=   6.5827E-02

== TH FLOW =====================================================================
 Step    198 Time=  9.30000E+00 Dt=  5.00000E-02 [y] snes_conv_reason:    3
  newton =   1 [     204] linear =   136 [     27159] cuts =  0 [   0]
  --> max chng: dpmx=   1.2680E+00 dtmpmx=   6.5665E-02

== TH FLOW =====================================================================
 Step    199 Time=  9.35000E+00 Dt=  5.00000E-02 [y] snes_conv_reason:    3
  newton =   1 [     205] linear =   134 [     27293] cuts =  0 [   0]
  --> max chng: dpmx=   1.2648E+00 dtmpmx=   6.5402E-02

== TH FLOW =====================================================================
 Step    200 Time=  9.40000E+00 Dt=  5.00000E-02 [y] snes_conv_reason:    3
  newton =   1 [     206] linear =   134 [     27427] cuts =  0 [   0]
  --> max chng: dpmx=   1.2618E+00 dtmpmx=   6.5149E-02

== TH FLOW =====================================================================
 Step    201 Time=  9.45000E+00 Dt=  5.00000E-02 [y] snes_conv_reason:    3
  newton =   1 [     207] linear =   128 [     27555] cuts =  0 [   0]
  --> max chng: dpmx=   1.2583E+00 dtmpmx=   6.5002E-02

== TH FLOW =====================================================================
 Step    202 Time=  9.50000E+00 Dt=  5.00000E-02 [y] snes_conv_reason:    3
  newton =   1 [     208] linear =   132 [     27687] cuts =  0 [   0]
  --> max chng: dpmx=   1.2556E+00 dtmpmx=   6.4756E-02

== TH FLOW =====================================================================
 Step    203 Time=  9.55000E+00 Dt=  5.00000E-02 [y] snes_conv_reason:    3
  newton =   1 [     209] linear =   126 [     27813] cuts =  0 [   0]
  --> max chng: dpmx=   1.2518E+00 dtmpmx=   6.4485E-02

== TH FLOW =====================================================================
 Step    204 Time=  9.60000E+00 Dt=  5.00000E-02 [y] snes_conv_reason:    3
  newton =   1 [     210] linear =   135 [     27948] cuts =  0 [   0]
  --> max chng: dpmx=   1.2492E+00 dtmpmx=   6.4352E-02

== TH FLOW =====================================================================
 Step    205 Time=  9.65000E+00 Dt=  5.00000E-02 [y] snes_conv_reason:    3
  newton =   1 [     211] linear =   132 [     28080] cuts =  0 [   0]
  --> max chng: dpmx=   1.2462E+00 dtmpmx=   6.4123E-02

== TH FLOW =====================================================================
 Step    206 Time=  9.70000E+00 Dt=  5.00000E-02 [y] snes_conv_reason:    3
  newton =   1 [     212] linear =   133 [     28213] cuts =  0 [   0]
  --> max chng: dpmx=   1.2429E+00 dtmpmx=   6.3836E-02

== TH FLOW =====================================================================
 Step    207 Time=  9.75000E+00 Dt=  5.00000E-02 [y] snes_conv_reason:    3
  newton =   1 [     213] linear =   126 [     28339] cuts =  0 [   0]
  --> max chng: dpmx=   1.2399E+00 dtmpmx=   6.3717E-02

== TH FLOW =====================================================================
 Step    208 Time=  9.80000E+00 Dt=  5.00000E-02 [y] snes_conv_reason:    3
  newton =   1 [     214] linear =   129 [     28468] cuts =  0 [   0]
  --> max chng: dpmx=   1.2366E+00 dtmpmx=   6.3503E-02

== TH FLOW =====================================================================
 Step    209 Time=  9.85000E+00 Dt=  5.00000E-02 [y] snes_conv_reason:    3
  newton =   1 [     215] linear =   126 [     28594] cuts =  0 [   0]
  --> max chng: dpmx=   1.2332E+00 dtmpmx=   6.3201E-02

== TH FLOW =====================================================================
 Step    210 Time=  9.90000E+00 Dt=  5.00000E-02 [y] snes_conv_reason:    3
  newton =   1 [     216] linear =   121 [     28715] cuts =  0 [   0]
  --> max chng: dpmx=   1.2307E+00 dtmpmx=   6.3094E-02

== TH FLOW =====================================================================
 Step    211 Time=  9.95000E+00 Dt=  5.00000E-02 [y] snes_conv_reason:    3
  newton =   1 [     217] linear =   131 [     28846] cuts =  0 [   0]
  --> max chng: dpmx=   1.2273E+00 dtmpmx=   6.2896E-02

== TH FLOW =====================================================================
 Step    212 Time=  1.00000E+01 Dt=  5.00000E-02 [y] snes_conv_reason:    3
  newton =   1 [     218] linear =   131 [     28977] cuts =  0 [   0]
  --> max chng: dpmx=   1.2243E+00 dtmpmx=   6.2606E-02

== TH FLOW =====================================================================
 Step    213 Time=  1.00500E+01 Dt=  5.00000E-02 [y] snes_conv_reason:    3
  newton =   1 [     219] linear =   130 [     29107] cuts =  0 [   0]
  --> max chng: dpmx=   1.2211E+00 dtmpmx=   6.2485E-02

== TH FLOW =====================================================================
 Step    214 Time=  1.01000E+01 Dt=  5.00000E-02 [y] snes_conv_reason:    3
  newton =   1 [     220] linear =   132 [     29239] cuts =  0 [   0]
  --> max chng: dpmx=   1.2176E+00 dtmpmx=   6.2300E-02

== TH FLOW =====================================================================
 Step    215 Time=  1.01500E+01 Dt=  5.00000E-02 [y] snes_conv_reason:    3
  newton =   1 [     221] linear =   133 [     29372] cuts =  0 [   0]
  --> max chng: dpmx=   1.2150E+00 dtmpmx=   6.2027E-02

== TH FLOW =====================================================================
 Step    216 Time=  1.02000E+01 Dt=  5.00000E-02 [y] snes_conv_reason:    3
  newton =   1 [     222] linear =   133 [     29505] cuts =  0 [   0]
  --> max chng: dpmx=   1.2116E+00 dtmpmx=   6.1888E-02

== TH FLOW =====================================================================
 Step    217 Time=  1.02500E+01 Dt=  5.00000E-02 [y] snes_conv_reason:    3
  newton =   1 [     223] linear =   132 [     29637] cuts =  0 [   0]
  --> max chng: dpmx=   1.2086E+00 dtmpmx=   6.1717E-02

== TH FLOW =====================================================================
 Step    218 Time=  1.03000E+01 Dt=  5.00000E-02 [y] snes_conv_reason:    3
  newton =   1 [     224] linear =   133 [     29770] cuts =  0 [   0]
  --> max chng: dpmx=   1.2054E+00 dtmpmx=   6.1459E-02

== TH FLOW =====================================================================
 Step    219 Time=  1.03500E+01 Dt=  5.00000E-02 [y] snes_conv_reason:    3
  newton =   1 [     225] linear =   131 [     29901] cuts =  0 [   0]
  --> max chng: dpmx=   1.2026E+00 dtmpmx=   6.1302E-02

== TH FLOW =====================================================================
 Step    220 Time=  1.04000E+01 Dt=  5.00000E-02 [y] snes_conv_reason:    3
  newton =   1 [     226] linear =   132 [     30033] cuts =  0 [   0]
  --> max chng: dpmx=   1.1989E+00 dtmpmx=   6.1145E-02

== TH FLOW =====================================================================
 Step    221 Time=  1.04500E+01 Dt=  5.00000E-02 [y] snes_conv_reason:    3
  newton =   1 [     227] linear =   131 [     30164] cuts =  0 [   0]
  --> max chng: dpmx=   1.1965E+00 dtmpmx=   6.0902E-02

== TH FLOW =====================================================================
 Step    222 Time=  1.05000E+01 Dt=  5.00000E-02 [y] snes_conv_reason:    3
  newton =   1 [     228] linear =   132 [     30296] cuts =  0 [   0]
  --> max chng: dpmx=   1.1933E+00 dtmpmx=   6.0729E-02

== TH FLOW =====================================================================
 Step    223 Time=  1.05500E+01 Dt=  5.00000E-02 [y] snes_conv_reason:    3
  newton =   1 [     229] linear =   123 [     30419] cuts =  0 [   0]
  --> max chng: dpmx=   1.1898E+00 dtmpmx=   6.0583E-02

== TH FLOW =====================================================================
 Step    224 Time=  1.06000E+01 Dt=  5.00000E-02 [y] snes_conv_reason:    3
  newton =   1 [     230] linear =   131 [     30550] cuts =  0 [   0]
  --> max chng: dpmx=   1.1870E+00 dtmpmx=   6.0355E-02

== TH FLOW =====================================================================
 Step    225 Time=  1.06500E+01 Dt=  5.00000E-02 [y] snes_conv_reason:    3
  newton =   1 [     231] linear =   131 [     30681] cuts =  0 [   0]
  --> max chng: dpmx=   1.1839E+00 dtmpmx=   6.0166E-02

== TH FLOW =====================================================================
 Step    226 Time=  1.07000E+01 Dt=  5.00000E-02 [y] snes_conv_reason:    3
  newton =   1 [     232] linear =   132 [     30813] cuts =  0 [   0]
  --> max chng: dpmx=   1.1807E+00 dtmpmx=   6.0033E-02

== TH FLOW =====================================================================
 Step    227 Time=  1.07500E+01 Dt=  5.00000E-02 [y] snes_conv_reason:    3
  newton =   1 [     233] linear =   137 [     30950] cuts =  0 [   0]
  --> max chng: dpmx=   1.1777E+00 dtmpmx=   5.9818E-02

== TH FLOW =====================================================================
 Step    228 Time=  1.08000E+01 Dt=  5.00000E-02 [y] snes_conv_reason:    3
  newton =   1 [     234] linear =   129 [     31079] cuts =  0 [   0]
  --> max chng: dpmx=   1.1747E+00 dtmpmx=   5.9615E-02

== TH FLOW =====================================================================
 Step    229 Time=  1.08500E+01 Dt=  5.00000E-02 [y] snes_conv_reason:    3
  newton =   1 [     235] linear =   135 [     31214] cuts =  0 [   0]
  --> max chng: dpmx=   1.1713E+00 dtmpmx=   5.9493E-02

== TH FLOW =====================================================================
 Step    230 Time=  1.09000E+01 Dt=  5.00000E-02 [y] snes_conv_reason:    3
  newton =   1 [     236] linear =   134 [     31348] cuts =  0 [   0]
  --> max chng: dpmx=   1.1686E+00 dtmpmx=   5.9291E-02

== TH FLOW =====================================================================
 Step    231 Time=  1.09500E+01 Dt=  5.00000E-02 [y] snes_conv_reason:    3
  newton =   1 [     237] linear =   133 [     31481] cuts =  0 [   0]
  --> max chng: dpmx=   1.1651E+00 dtmpmx=   5.9074E-02

== TH FLOW =====================================================================
 Step    232 Time=  1.10000E+01 Dt=  5.00000E-02 [y] snes_conv_reason:    3
  newton =   1 [     238] linear =   135 [     31616] cuts =  0 [   0]
  --> max chng: dpmx=   1.1626E+00 dtmpmx=   5.8963E-02

== TH FLOW =====================================================================
 Step    233 Time=  1.10500E+01 Dt=  5.00000E-02 [y] snes_conv_reason:    3
  newton =   1 [     239] linear =   134 [     31750] cuts =  0 [   0]
  --> max chng: dpmx=   1.1592E+00 dtmpmx=   5.8773E-02

== TH FLOW =====================================================================
 Step    234 Time=  1.11000E+01 Dt=  5.00000E-02 [y] snes_conv_reason:    3
  newton =   1 [     240] linear =   127 [     31877] cuts =  0 [   0]
  --> max chng: dpmx=   1.1564E+00 dtmpmx=   5.8543E-02

== TH FLOW =====================================================================
 Step    235 Time=  1.11500E+01 Dt=  5.00000E-02 [y] snes_conv_reason:    3
  newton =   1 [     241] linear =   125 [     32002] cuts =  0 [   0]
  --> max chng: dpmx=   1.1530E+00 dtmpmx=   5.8442E-02

== TH FLOW =====================================================================
 Step    236 Time=  1.12000E+01 Dt=  5.00000E-02 [y] snes_conv_reason:    3
  newton =   1 [     242] linear =   135 [     32137] cuts =  0 [   0]
  --> max chng: dpmx=   1.1500E+00 dtmpmx=   5.8265E-02

== TH FLOW =====================================================================
 Step    237 Time=  1.12500E+01 Dt=  5.00000E-02 [y] snes_conv_reason:    3
  newton =   1 [     243] linear =   133 [     32270] cuts =  0 [   0]
  --> max chng: dpmx=   1.1472E+00 dtmpmx=   5.8022E-02

== TH FLOW =====================================================================
 Step    238 Time=  1.13000E+01 Dt=  5.00000E-02 [y] snes_conv_reason:    3
  newton =   1 [     244] linear =   135 [     32405] cuts =  0 [   0]
  --> max chng: dpmx=   1.1438E+00 dtmpmx=   5.7931E-02

== TH FLOW =====================================================================
 Step    239 Time=  1.13500E+01 Dt=  5.00000E-02 [y] snes_conv_reason:    3
  newton =   1 [     245] linear =   134 [     32539] cuts =  0 [   0]
  --> max chng: dpmx=   1.1410E+00 dtmpmx=   5.7765E-02

== TH FLOW =====================================================================
 Step    240 Time=  1.14000E+01 Dt=  5.00000E-02 [y] snes_conv_reason:    3
  newton =   1 [     246] linear =   135 [     32674] cuts =  0 [   0]
  --> max chng: dpmx=   1.1377E+00 dtmpmx=   5.7526E-02

== TH FLOW =====================================================================
 Step    241 Time=  1.14500E+01 Dt=  5.00000E-02 [y] snes_conv_reason:    3
  newton =   1 [     247] linear =   135 [     32809] cuts =  0 [   0]
  --> max chng: dpmx=   1.1348E+00 dtmpmx=   5.7430E-02

== TH FLOW =====================================================================
 Step    242 Time=  1.15000E+01 Dt=  5.00000E-02 [y] snes_conv_reason:    3
  newton =   1 [     248] linear =   123 [     32932] cuts =  0 [   0]
  --> max chng: dpmx=   1.1316E+00 dtmpmx=   5.7275E-02

== TH FLOW =====================================================================
 Step    243 Time=  1.15500E+01 Dt=  5.00000E-02 [y] snes_conv_reason:    3
  newton =   1 [     249] linear =   131 [     33063] cuts =  0 [   0]
  --> max chng: dpmx=   1.1286E+00 dtmpmx=   5.7048E-02

== TH FLOW =====================================================================
 Step    244 Time=  1.16000E+01 Dt=  5.00000E-02 [y] snes_conv_reason:    3
  newton =   1 [     250] linear =   133 [     33196] cuts =  0 [   0]
  --> max chng: dpmx=   1.1257E+00 dtmpmx=   5.6937E-02

== TH FLOW =====================================================================
 Step    245 Time=  1.16500E+01 Dt=  5.00000E-02 [y] snes_conv_reason:    3
  newton =   1 [     251] linear =   133 [     33329] cuts =  0 [   0]
  --> max chng: dpmx=   1.1222E+00 dtmpmx=   5.6793E-02

== TH FLOW =====================================================================
 Step    246 Time=  1.17000E+01 Dt=  5.00000E-02 [y] snes_conv_reason:    3
  newton =   1 [     252] linear =   137 [     33466] cuts =  0 [   0]
  --> max chng: dpmx=   1.1198E+00 dtmpmx=   5.6577E-02

== TH FLOW =====================================================================
 Step    247 Time=  1.17500E+01 Dt=  5.00000E-02 [y] snes_conv_reason:    3
  newton =   1 [     253] linear =   130 [     33596] cuts =  0 [   0]
  --> max chng: dpmx=   1.1166E+00 dtmpmx=   5.6453E-02

== TH FLOW =====================================================================
 Step    248 Time=  1.18000E+01 Dt=  5.00000E-02 [y] snes_conv_reason:    3
  newton =   1 [     254] linear =   132 [     33728] cuts =  0 [   0]
  --> max chng: dpmx=   1.1131E+00 dtmpmx=   5.6318E-02

== TH FLOW =====================================================================
 Step    249 Time=  1.18500E+01 Dt=  5.00000E-02 [y] snes_conv_reason:    3
  newton =   1 [     255] linear =   137 [     33865] cuts =  0 [   0]
  --> max chng: dpmx=   1.1104E+00 dtmpmx=   5.6115E-02

== TH FLOW =====================================================================
 Step    250 Time=  1.19000E+01 Dt=  5.00000E-02 [y] snes_conv_reason:    3
  newton =   1 [     256] linear =   133 [     33998] cuts =  0 [   0]
  --> max chng: dpmx=   1.1073E+00 dtmpmx=   5.5977E-02

== TH FLOW =====================================================================
 Step    251 Time=  1.19500E+01 Dt=  5.00000E-02 [y] snes_conv_reason:    3
  newton =   1 [     257] linear =   137 [     34135] cuts =  0 [   0]
  --> max chng: dpmx=   1.1044E+00 dtmpmx=   5.5853E-02

== TH FLOW =====================================================================
 Step    252 Time=  1.20000E+01 Dt=  5.00000E-02 [y] snes_conv_reason:    3
  newton =   1 [     258] linear =   133 [     34268] cuts =  0 [   0]
  --> max chng: dpmx=   1.1014E+00 dtmpmx=   5.5660E-02

== TH FLOW =====================================================================
 Step    253 Time=  1.20500E+01 Dt=  5.00000E-02 [y] snes_conv_reason:    3
  newton =   1 [     259] linear =   137 [     34405] cuts =  0 [   0]
  --> max chng: dpmx=   1.0978E+00 dtmpmx=   5.5509E-02

== TH FLOW =====================================================================
 Step    254 Time=  1.21000E+01 Dt=  5.00000E-02 [y] snes_conv_reason:    3
  newton =   1 [     260] linear =   140 [     34545] cuts =  0 [   0]
  --> max chng: dpmx=   1.0953E+00 dtmpmx=   5.5394E-02

== TH FLOW =====================================================================
 Step    255 Time=  1.21500E+01 Dt=  5.00000E-02 [y] snes_conv_reason:    3
  newton =   1 [     261] linear =   131 [     34676] cuts =  0 [   0]
  --> max chng: dpmx=   1.0923E+00 dtmpmx=   5.5212E-02

== TH FLOW =====================================================================
 Step    256 Time=  1.22000E+01 Dt=  5.00000E-02 [y] snes_conv_reason:    3
  newton =   1 [     262] linear =   134 [     34810] cuts =  0 [   0]
  --> max chng: dpmx=   1.0889E+00 dtmpmx=   5.5050E-02

== TH FLOW =====================================================================
 Step    257 Time=  1.22500E+01 Dt=  5.00000E-02 [y] snes_conv_reason:    3
  newton =   1 [     263] linear =   132 [     34942] cuts =  0 [   0]
  --> max chng: dpmx=   1.0860E+00 dtmpmx=   5.4944E-02

[...]
 Step    493 Time=  2.40500E+01 Dt=  5.00000E-02 [y] snes_conv_reason:    3
  newton =   1 [     499] linear =   128 [     66091] cuts =  0 [   0]
  --> max chng: dpmx=   1.2588E+00 dtmpmx=   3.4072E-02

== TH FLOW =====================================================================
 Step    494 Time=  2.41000E+01 Dt=  5.00000E-02 [y] snes_conv_reason:    3
  newton =   1 [     500] linear =   132 [     66223] cuts =  0 [   0]
  --> max chng: dpmx=   1.2611E+00 dtmpmx=   3.4023E-02

== TH FLOW =====================================================================
 Step    495 Time=  2.41500E+01 Dt=  5.00000E-02 [y] snes_conv_reason:    3
  newton =   1 [     501] linear =   132 [     66355] cuts =  0 [   0]
  --> max chng: dpmx=   1.2640E+00 dtmpmx=   3.3980E-02

== TH FLOW =====================================================================
 Step    496 Time=  2.42000E+01 Dt=  5.00000E-02 [y] snes_conv_reason:    3
  newton =   1 [     502] linear =   132 [     66487] cuts =  0 [   0]
  --> max chng: dpmx=   1.2666E+00 dtmpmx=   3.3914E-02

== TH FLOW =====================================================================
 Step    497 Time=  2.42500E+01 Dt=  5.00000E-02 [y] snes_conv_reason:    3
  newton =   1 [     503] linear =   126 [     66613] cuts =  0 [   0]
  --> max chng: dpmx=   1.2691E+00 dtmpmx=   3.3862E-02

== TH FLOW =====================================================================
 Step    498 Time=  2.43000E+01 Dt=  5.00000E-02 [y] snes_conv_reason:    3
  newton =   1 [     504] linear =   128 [     66741] cuts =  0 [   0]
  --> max chng: dpmx=   1.2721E+00 dtmpmx=   3.3821E-02

== TH FLOW =====================================================================
 Step    499 Time=  2.43500E+01 Dt=  5.00000E-02 [y] snes_conv_reason:    3
  newton =   1 [     505] linear =   126 [     66867] cuts =  0 [   0]
  --> max chng: dpmx=   1.2746E+00 dtmpmx=   3.3758E-02

== TH FLOW =====================================================================
 Step    500 Time=  2.44000E+01 Dt=  5.00000E-02 [y] snes_conv_reason:    3
  newton =   1 [     506] linear =   128 [     66995] cuts =  0 [   0]
  --> max chng: dpmx=   1.2770E+00 dtmpmx=   3.3703E-02

== TH FLOW =====================================================================
 Step    501 Time=  2.44500E+01 Dt=  5.00000E-02 [y] snes_conv_reason:    3
  newton =   1 [     507] linear =   127 [     67122] cuts =  0 [   0]
  --> max chng: dpmx=   1.2800E+00 dtmpmx=   3.3663E-02

== TH FLOW =====================================================================
 Step    502 Time=  2.45000E+01 Dt=  5.00000E-02 [y] snes_conv_reason:    3
  newton =   1 [     508] linear =   133 [     67255] cuts =  0 [   0]
  --> max chng: dpmx=   1.2823E+00 dtmpmx=   3.3603E-02

== TH FLOW =====================================================================
 Step    503 Time=  2.45500E+01 Dt=  5.00000E-02 [y] snes_conv_reason:    3
  newton =   1 [     509] linear =   134 [     67389] cuts =  0 [   0]
  --> max chng: dpmx=   1.2853E+00 dtmpmx=   3.3545E-02

== TH FLOW =====================================================================
 Step    504 Time=  2.46000E+01 Dt=  5.00000E-02 [y] snes_conv_reason:    3
  newton =   1 [     510] linear =   128 [     67517] cuts =  0 [   0]
  --> max chng: dpmx=   1.2876E+00 dtmpmx=   3.3507E-02

== TH FLOW =====================================================================
 Step    505 Time=  2.46500E+01 Dt=  5.00000E-02 [y] snes_conv_reason:    3
  newton =   1 [     511] linear =   134 [     67651] cuts =  0 [   0]
  --> max chng: dpmx=   1.2906E+00 dtmpmx=   3.3449E-02

== TH FLOW =====================================================================
 Step    506 Time=  2.47000E+01 Dt=  5.00000E-02 [y] snes_conv_reason:    3
  newton =   1 [     512] linear =   134 [     67785] cuts =  0 [   0]
  --> max chng: dpmx=   1.2932E+00 dtmpmx=   3.3389E-02

== TH FLOW =====================================================================
 Step    507 Time=  2.47500E+01 Dt=  5.00000E-02 [y] snes_conv_reason:    3
  newton =   1 [     513] linear =   131 [     67916] cuts =  0 [   0]
  --> max chng: dpmx=   1.2957E+00 dtmpmx=   3.3353E-02

== TH FLOW =====================================================================
 Step    508 Time=  2.48000E+01 Dt=  5.00000E-02 [y] snes_conv_reason:    3
  newton =   1 [     514] linear =   130 [     68046] cuts =  0 [   0]
  --> max chng: dpmx=   1.2985E+00 dtmpmx=   3.3296E-02

== TH FLOW =====================================================================
 Step    509 Time=  2.48500E+01 Dt=  5.00000E-02 [y] snes_conv_reason:    3
  newton =   1 [     515] linear =   130 [     68176] cuts =  0 [   0]
  --> max chng: dpmx=   1.3012E+00 dtmpmx=   3.3234E-02

== TH FLOW =====================================================================
 Step    510 Time=  2.49000E+01 Dt=  5.00000E-02 [y] snes_conv_reason:    3
  newton =   1 [     516] linear =   130 [     68306] cuts =  0 [   0]
  --> max chng: dpmx=   1.3038E+00 dtmpmx=   3.3200E-02

== TH FLOW =====================================================================
 Step    511 Time=  2.49500E+01 Dt=  5.00000E-02 [y] snes_conv_reason:    3
  newton =   1 [     517] linear =   134 [     68440] cuts =  0 [   0]
  --> max chng: dpmx=   1.3065E+00 dtmpmx=   3.3145E-02

== TH FLOW =====================================================================
 Step    512 Time=  2.50000E+01 Dt=  5.00000E-02 [y] snes_conv_reason:    3
  newton =   1 [     518] linear =   136 [     68576] cuts =  0 [   0]
  --> max chng: dpmx=   1.3092E+00 dtmpmx=   3.3080E-02

== TH FLOW =====================================================================
 Step    513 Time=  2.50500E+01 Dt=  5.00000E-02 [y] snes_conv_reason:    3
  newton =   1 [     519] linear =   139 [     68715] cuts =  0 [   0]
  --> max chng: dpmx=   1.3118E+00 dtmpmx=   3.3048E-02

== TH FLOW =====================================================================
 Step    514 Time=  2.51000E+01 Dt=  5.00000E-02 [y] snes_conv_reason:    3
  newton =   1 [     520] linear =   134 [     68849] cuts =  0 [   0]
  --> max chng: dpmx=   1.3144E+00 dtmpmx=   3.2995E-02

== TH FLOW =====================================================================
 Step    515 Time=  2.51500E+01 Dt=  5.00000E-02 [y] snes_conv_reason:    3
  newton =   1 [     521] linear =   137 [     68986] cuts =  0 [   0]
  --> max chng: dpmx=   1.3172E+00 dtmpmx=   3.2928E-02

== TH FLOW =====================================================================
 Step    516 Time=  2.52000E+01 Dt=  5.00000E-02 [y] snes_conv_reason:    3
  newton =   1 [     522] linear =   133 [     69119] cuts =  0 [   0]
  --> max chng: dpmx=   1.3198E+00 dtmpmx=   3.2897E-02

== TH FLOW =====================================================================
 Step    517 Time=  2.52500E+01 Dt=  5.00000E-02 [y] snes_conv_reason:    3
  newton =   1 [     523] linear =   137 [     69256] cuts =  0 [   0]
  --> max chng: dpmx=   1.3224E+00 dtmpmx=   3.2846E-02

== TH FLOW =====================================================================
 Step    518 Time=  2.53000E+01 Dt=  5.00000E-02 [y] snes_conv_reason:    3
  newton =   1 [     524] linear =   134 [     69390] cuts =  0 [   0]
  --> max chng: dpmx=   1.3252E+00 dtmpmx=   3.2777E-02

== TH FLOW =====================================================================
 Step    519 Time=  2.53500E+01 Dt=  5.00000E-02 [y] snes_conv_reason:    3
  newton =   1 [     525] linear =   124 [     69514] cuts =  0 [   0]
  --> max chng: dpmx=   1.3278E+00 dtmpmx=   3.2748E-02

== TH FLOW =====================================================================
 Step    520 Time=  2.54000E+01 Dt=  5.00000E-02 [y] snes_conv_reason:    3
  newton =   1 [     526] linear =   125 [     69639] cuts =  0 [   0]
  --> max chng: dpmx=   1.3304E+00 dtmpmx=   3.2699E-02

== TH FLOW =====================================================================
 Step    521 Time=  2.54500E+01 Dt=  5.00000E-02 [y] snes_conv_reason:    3
  newton =   1 [     527] linear =   125 [     69764] cuts =  0 [   0]
  --> max chng: dpmx=   1.3332E+00 dtmpmx=   3.2630E-02

== TH FLOW =====================================================================
 Step    522 Time=  2.55000E+01 Dt=  5.00000E-02 [y] snes_conv_reason:    3
  newton =   1 [     528] linear =   131 [     69895] cuts =  0 [   0]
  --> max chng: dpmx=   1.3359E+00 dtmpmx=   3.2600E-02

== TH FLOW =====================================================================
 Step    523 Time=  2.55500E+01 Dt=  5.00000E-02 [y] snes_conv_reason:    3
  newton =   1 [     529] linear =   133 [     70028] cuts =  0 [   0]
  --> max chng: dpmx=   1.3385E+00 dtmpmx=   3.2553E-02

== TH FLOW =====================================================================
 Step    524 Time=  2.56000E+01 Dt=  5.00000E-02 [y] snes_conv_reason:    3
  newton =   1 [     530] linear =   133 [     70161] cuts =  0 [   0]
  --> max chng: dpmx=   1.3411E+00 dtmpmx=   3.2486E-02

== TH FLOW =====================================================================
 Step    525 Time=  2.56500E+01 Dt=  5.00000E-02 [y] snes_conv_reason:    3
  newton =   1 [     531] linear =   133 [     70294] cuts =  0 [   0]
  --> max chng: dpmx=   1.3439E+00 dtmpmx=   3.2453E-02

== TH FLOW =====================================================================
 Step    526 Time=  2.57000E+01 Dt=  5.00000E-02 [y] snes_conv_reason:    3
  newton =   1 [     532] linear =   131 [     70425] cuts =  0 [   0]
  --> max chng: dpmx=   1.3467E+00 dtmpmx=   3.2408E-02

== TH FLOW =====================================================================
 Step    527 Time=  2.57500E+01 Dt=  5.00000E-02 [y] snes_conv_reason:    3
  newton =   1 [     533] linear =   131 [     70556] cuts =  0 [   0]
  --> max chng: dpmx=   1.3492E+00 dtmpmx=   3.2343E-02

== TH FLOW =====================================================================
 Step    528 Time=  2.58000E+01 Dt=  5.00000E-02 [y] snes_conv_reason:    3
  newton =   1 [     534] linear =   130 [     70686] cuts =  0 [   0]
  --> max chng: dpmx=   1.3518E+00 dtmpmx=   3.2308E-02

== TH FLOW =====================================================================
 Step    529 Time=  2.58500E+01 Dt=  5.00000E-02 [y] snes_conv_reason:    3
  newton =   1 [     535] linear =   127 [     70813] cuts =  0 [   0]
  --> max chng: dpmx=   1.3549E+00 dtmpmx=   3.2264E-02

== TH FLOW =====================================================================
 Step    530 Time=  2.59000E+01 Dt=  5.00000E-02 [y] snes_conv_reason:    3
  newton =   1 [     536] linear =   130 [     70943] cuts =  0 [   0]
  --> max chng: dpmx=   1.3571E+00 dtmpmx=   3.2201E-02

== TH FLOW =====================================================================
 Step    531 Time=  2.59500E+01 Dt=  5.00000E-02 [y] snes_conv_reason:    3
  newton =   1 [     537] linear =   131 [     71074] cuts =  0 [   0]
  --> max chng: dpmx=   1.3599E+00 dtmpmx=   3.2164E-02

== TH FLOW =====================================================================
 Step    532 Time=  2.60000E+01 Dt=  5.00000E-02 [y] snes_conv_reason:    3
  newton =   1 [     538] linear =   126 [     71200] cuts =  0 [   0]
  --> max chng: dpmx=   1.3628E+00 dtmpmx=   3.2122E-02

== TH FLOW =====================================================================
 Step    533 Time=  2.60500E+01 Dt=  5.00000E-02 [y] snes_conv_reason:    3
  newton =   1 [     539] linear =   121 [     71321] cuts =  0 [   0]
  --> max chng: dpmx=   1.3653E+00 dtmpmx=   3.2061E-02

== TH FLOW =====================================================================
 Step    534 Time=  2.61000E+01 Dt=  5.00000E-02 [y] snes_conv_reason:    3
  newton =   1 [     540] linear =   133 [     71454] cuts =  0 [   0]
  --> max chng: dpmx=   1.3680E+00 dtmpmx=   3.2021E-02

== TH FLOW =====================================================================
 Step    535 Time=  2.61500E+01 Dt=  5.00000E-02 [y] snes_conv_reason:    3
  newton =   1 [     541] linear =   130 [     71584] cuts =  0 [   0]
  --> max chng: dpmx=   1.3707E+00 dtmpmx=   3.1981E-02

== TH FLOW =====================================================================
 Step    536 Time=  2.62000E+01 Dt=  5.00000E-02 [y] snes_conv_reason:    3
  newton =   1 [     542] linear =   130 [     71714] cuts =  0 [   0]
  --> max chng: dpmx=   1.3734E+00 dtmpmx=   3.1921E-02

== TH FLOW =====================================================================
 Step    537 Time=  2.62500E+01 Dt=  5.00000E-02 [y] snes_conv_reason:    3
  newton =   1 [     543] linear =   130 [     71844] cuts =  0 [   0]
  --> max chng: dpmx=   1.3760E+00 dtmpmx=   3.1879E-02

== TH FLOW =====================================================================
 Step    538 Time=  2.63000E+01 Dt=  5.00000E-02 [y] snes_conv_reason:    3
  newton =   1 [     544] linear =   130 [     71974] cuts =  0 [   0]
  --> max chng: dpmx=   1.3788E+00 dtmpmx=   3.1840E-02

== TH FLOW =====================================================================
 Step    539 Time=  2.63500E+01 Dt=  5.00000E-02 [y] snes_conv_reason:    3
  newton =   1 [     545] linear =   122 [     72096] cuts =  0 [   0]
  --> max chng: dpmx=   1.3815E+00 dtmpmx=   3.1783E-02

== TH FLOW =====================================================================
 Step    540 Time=  2.64000E+01 Dt=  5.00000E-02 [y] snes_conv_reason:    3
  newton =   1 [     546] linear =   128 [     72224] cuts =  0 [   0]
  --> max chng: dpmx=   1.3841E+00 dtmpmx=   3.1738E-02

== TH FLOW =====================================================================
 Step    541 Time=  2.64500E+01 Dt=  5.00000E-02 [y] snes_conv_reason:    3
  newton =   1 [     547] linear =   129 [     72353] cuts =  0 [   0]
  --> max chng: dpmx=   1.3869E+00 dtmpmx=   3.1702E-02

== TH FLOW =====================================================================
 Step    542 Time=  2.65000E+01 Dt=  5.00000E-02 [y] snes_conv_reason:    3
  newton =   1 [     548] linear =   126 [     72479] cuts =  0 [   0]
  --> max chng: dpmx=   1.3896E+00 dtmpmx=   3.1646E-02

== TH FLOW =====================================================================
 Step    543 Time=  2.65500E+01 Dt=  5.00000E-02 [y] snes_conv_reason:    3
  newton =   1 [     549] linear =   135 [     72614] cuts =  0 [   0]
  --> max chng: dpmx=   1.3922E+00 dtmpmx=   3.1599E-02

== TH FLOW =====================================================================
 Step    544 Time=  2.66000E+01 Dt=  5.00000E-02 [y] snes_conv_reason:    3
  newton =   1 [     550] linear =   130 [     72744] cuts =  0 [   0]
  --> max chng: dpmx=   1.3948E+00 dtmpmx=   3.1564E-02

== TH FLOW =====================================================================
 Step    545 Time=  2.66500E+01 Dt=  5.00000E-02 [y] snes_conv_reason:    3
  newton =   1 [     551] linear =   131 [     72875] cuts =  0 [   0]
  --> max chng: dpmx=   1.3977E+00 dtmpmx=   3.1510E-02

== TH FLOW =====================================================================
 Step    546 Time=  2.67000E+01 Dt=  5.00000E-02 [y] snes_conv_reason:    3
  newton =   1 [     552] linear =   128 [     73003] cuts =  0 [   0]
  --> max chng: dpmx=   1.4005E+00 dtmpmx=   3.1461E-02

== TH FLOW =====================================================================
 Step    547 Time=  2.67500E+01 Dt=  5.00000E-02 [y] snes_conv_reason:    3
  newton =   1 [     553] linear =   130 [     73133] cuts =  0 [   0]
  --> max chng: dpmx=   1.4027E+00 dtmpmx=   3.1427E-02

== TH FLOW =====================================================================
 Step    548 Time=  2.68000E+01 Dt=  5.00000E-02 [y] snes_conv_reason:    3
  newton =   1 [     554] linear =   129 [     73262] cuts =  0 [   0]
  --> max chng: dpmx=   1.4061E+00 dtmpmx=   3.1375E-02

== TH FLOW =====================================================================
 Step    549 Time=  2.68500E+01 Dt=  5.00000E-02 [y] snes_conv_reason:    3
  newton =   1 [     555] linear =   131 [     73393] cuts =  0 [   0]
  --> max chng: dpmx=   1.4082E+00 dtmpmx=   3.1324E-02

== TH FLOW =====================================================================
 Step    550 Time=  2.69000E+01 Dt=  5.00000E-02 [y] snes_conv_reason:    3
  newton =   1 [     556] linear =   130 [     73523] cuts =  0 [   0]
  --> max chng: dpmx=   1.4111E+00 dtmpmx=   3.1292E-02

== TH FLOW =====================================================================
 Step    551 Time=  2.69500E+01 Dt=  5.00000E-02 [y] snes_conv_reason:    3
  newton =   1 [     557] linear =   126 [     73649] cuts =  0 [   0]
  --> max chng: dpmx=   1.4138E+00 dtmpmx=   3.1241E-02

== TH FLOW =====================================================================
 Step    552 Time=  2.70000E+01 Dt=  5.00000E-02 [y] snes_conv_reason:    3
  newton =   1 [     558] linear =   125 [     73774] cuts =  0 [   0]
  --> max chng: dpmx=   1.4166E+00 dtmpmx=   3.1188E-02

== TH FLOW =====================================================================
 Step    553 Time=  2.70500E+01 Dt=  5.00000E-02 [y] snes_conv_reason:    3
  newton =   1 [     559] linear =   127 [     73901] cuts =  0 [   0]
  --> max chng: dpmx=   1.4189E+00 dtmpmx=   3.1157E-02

== TH FLOW =====================================================================
 Step    554 Time=  2.71000E+01 Dt=  5.00000E-02 [y] snes_conv_reason:    3
  newton =   1 [     560] linear =   132 [     74033] cuts =  0 [   0]
  --> max chng: dpmx=   1.4222E+00 dtmpmx=   3.1109E-02

== TH FLOW =====================================================================
 Step    555 Time=  2.71500E+01 Dt=  5.00000E-02 [y] snes_conv_reason:    3
  newton =   1 [     561] linear =   126 [     74159] cuts =  0 [   0]
  --> max chng: dpmx=   1.4244E+00 dtmpmx=   3.1054E-02

== TH FLOW =====================================================================
 Step    556 Time=  2.72000E+01 Dt=  5.00000E-02 [y] snes_conv_reason:    3
  newton =   1 [     562] linear =   126 [     74285] cuts =  0 [   0]
  --> max chng: dpmx=   1.4275E+00 dtmpmx=   3.1024E-02

== TH FLOW =====================================================================
 Step    557 Time=  2.72500E+01 Dt=  5.00000E-02 [y] snes_conv_reason:    3
  newton =   1 [     563] linear =   126 [     74411] cuts =  0 [   0]
  --> max chng: dpmx=   1.4300E+00 dtmpmx=   3.0977E-02

== TH FLOW =====================================================================
 Step    558 Time=  2.73000E+01 Dt=  5.00000E-02 [y] snes_conv_reason:    3
  newton =   1 [     564] linear =   128 [     74539] cuts =  0 [   0]
  --> max chng: dpmx=   1.4326E+00 dtmpmx=   3.0920E-02

== TH FLOW =====================================================================
 Step    559 Time=  2.73500E+01 Dt=  5.00000E-02 [y] snes_conv_reason:    3
  newton =   1 [     565] linear =   126 [     74665] cuts =  0 [   0]
  --> max chng: dpmx=   1.4355E+00 dtmpmx=   3.0892E-02

== TH FLOW =====================================================================
 Step    560 Time=  2.74000E+01 Dt=  5.00000E-02 [y] snes_conv_reason:    3
  newton =   1 [     566] linear =   123 [     74788] cuts =  0 [   0]
  --> max chng: dpmx=   1.4379E+00 dtmpmx=   3.0846E-02

== TH FLOW =====================================================================
 Step    561 Time=  2.74500E+01 Dt=  5.00000E-02 [y] snes_conv_reason:    3
  newton =   1 [     567] linear =   123 [     74911] cuts =  0 [   0]
  --> max chng: dpmx=   1.4408E+00 dtmpmx=   3.0788E-02

== TH FLOW =====================================================================
 Step    562 Time=  2.75000E+01 Dt=  5.00000E-02 [y] snes_conv_reason:    3
  newton =   1 [     568] linear =   132 [     75043] cuts =  0 [   0]
  --> max chng: dpmx=   1.4435E+00 dtmpmx=   3.0761E-02

 Wall Clock Time:  9.9293E+01 [sec]   1.6549E+00 [min]   2.7581E-02 [hr]
