
===================
  PFLOTRAN v3.0.1
===================

 Extent of Gridded Domain
  X: 2.5000000000000000 - 97.500000000000000
  Y: 2.5000000000000000 - 1277.5000000000000
  Z: 2.5000000000000000 - 2.5000000000000000


=+=+=+=+=+=+=+=+=+=+=+=+=+=+=+=+=+=+=+=+=+=+=+=+=+=+=+=+=+=+=+=+=+=+=+=+=+=+=+=+

  Initial Condition

--------------------------------------------------------------------------------
          Flow Condition:   initial
                  Region:   all
--------------------------------------------------------------------------------

  Flow Condition: initial
    Synchronize time with update: no
    Time units: yr
    Length units: m
      Datum:
        Dataset: Unnamed Ascii Dataset
          Type: dataset_ascii_type
          Transient: no
          Array Rank:  3

    Sub Condition: pressure
      Type: hydrostatic
      Gradient:
        Dataset: Unnamed Ascii Dataset
          Type: dataset_ascii_type
          Transient: no
          Array Rank:  3
      Data:
        Dataset: Unnamed Ascii Dataset
          Type: dataset_ascii_type
          Transient: no
          Array Rank:  1

    Sub Condition: temperature
      Type: dirichlet
      Gradient:
      Data:
        Dataset: Unnamed Ascii Dataset
          Type: dataset_ascii_type
          Transient: no
          Array Rank:  1

--------------------------------------------------------------------------------

=+=+=+=+=+=+=+=+=+=+=+=+=+=+=+=+=+=+=+=+=+=+=+=+=+=+=+=+=+=+=+=+=+=+=+=+=+=+=+=+

  Boundary Condition

--------------------------------------------------------------------------------
          Flow Condition:   initial
                  Region:   north
--------------------------------------------------------------------------------

  Flow Condition: initial
    Synchronize time with update: no
    Time units: yr
    Length units: m
      Datum:
        Dataset: Unnamed Ascii Dataset
          Type: dataset_ascii_type
          Transient: no
          Array Rank:  3

    Sub Condition: pressure
      Type: hydrostatic
      Gradient:
        Dataset: Unnamed Ascii Dataset
          Type: dataset_ascii_type
          Transient: no
          Array Rank:  3
      Data:
        Dataset: Unnamed Ascii Dataset
          Type: dataset_ascii_type
          Transient: no
          Array Rank:  1

    Sub Condition: temperature
      Type: dirichlet
      Gradient:
      Data:
        Dataset: Unnamed Ascii Dataset
          Type: dataset_ascii_type
          Transient: no
          Array Rank:  1

--------------------------------------------------------------------------------

=+=+=+=+=+=+=+=+=+=+=+=+=+=+=+=+=+=+=+=+=+=+=+=+=+=+=+=+=+=+=+=+=+=+=+=+=+=+=+=+

  Boundary Condition

--------------------------------------------------------------------------------
          Flow Condition:   initial
                  Region:   south
--------------------------------------------------------------------------------

  Flow Condition: initial
    Synchronize time with update: no
    Time units: yr
    Length units: m
      Datum:
        Dataset: Unnamed Ascii Dataset
          Type: dataset_ascii_type
          Transient: no
          Array Rank:  3

    Sub Condition: pressure
      Type: hydrostatic
      Gradient:
        Dataset: Unnamed Ascii Dataset
          Type: dataset_ascii_type
          Transient: no
          Array Rank:  3
      Data:
        Dataset: Unnamed Ascii Dataset
          Type: dataset_ascii_type
          Transient: no
          Array Rank:  1

    Sub Condition: temperature
      Type: dirichlet
      Gradient:
      Data:
        Dataset: Unnamed Ascii Dataset
          Type: dataset_ascii_type
          Transient: no
          Array Rank:  1

--------------------------------------------------------------------------------

=+=+=+=+=+=+=+=+=+=+=+=+=+=+=+=+=+=+=+=+=+=+=+=+=+=+=+=+=+=+=+=+=+=+=+=+=+=+=+=+

  Source Sink

--------------------------------------------------------------------------------
          Flow Condition:   injection
                  Region:   heatpump_inject0
--------------------------------------------------------------------------------

  Flow Condition: injection
    Synchronize time with update: no
    Time units: yr
    Length units: m
      Datum:

    Sub Condition: rate
      Type: scaled volumetric rate
      Gradient:
      Data:
        Dataset: Unnamed Ascii Dataset
          Type: dataset_ascii_type
          Is transient?: yes
          Number of times:      3
          Is cyclic?: no
          Buffer:
            Rank:  2
            Dims:    1   3
            Buffer Slice Size:   0
          Array Rank:  1

    Sub Condition: temperature
      Type: dirichlet
      Gradient:
      Data:
        Dataset: Unnamed Ascii Dataset
          Type: dataset_ascii_type
          Transient: no
          Array Rank:  1

--------------------------------------------------------------------------------

 Requested processors =    32

FLOW Time Stepper
                 acceleration: on
       acceleration threshold: 5
       number of ramp entries: 5
                ramp entry #1: 2.0000
                ramp entry #2: 2.0000
                ramp entry #3: 2.0000
                ramp entry #4: 2.0000
                ramp entry #5: 2.0000
                ramp entry #6: 1.8000
                ramp entry #7: 1.6000
                ramp entry #8: 1.4000
                ramp entry #9: 1.2000
               ramp entry #10: 1.0000
               ramp entry #11: 1.0000
               ramp entry #12: 1.0000
               ramp entry #13: 1.0000
      maximum number of steps: 999999
constant time steps threshold: 5
       maximum number of cuts: 16
             reduction factor: 5.000000E-01
        maximum growth factor: 2.000000E+00

FLOW Newton Solver
                         atol: 1.000000E-50
                         rtol: 1.000000E-03
                         stol: 1.000000E-08
                         dtol: 1.000000E+04
                      maxnorm: 1.000000E+20
                    inftolres: -9.990000E+02
                    inftolupd: 1.000000E+00
                 inftolrelupd: -9.990000E+02
                 inftolsclres: -9.990000E+02
                     max iter: 50
                     min iter: 1
                         maxf: 10000
                  matrix type: baij
         precond. matrix type: baij
               inexact newton: off
            print convergence: on
   print detailed convergence: off
          check infinity norm: on

FLOW Linear Solver
                       solver: bcgs
               preconditioner: bjacobi
                         atol: 1.000000E-50
                         rtol: 1.000000E-05
                         dtol: 1.000000E+04
            maximum iteration: 10000

== TH FLOW =====================================================================
 Step      1 Time=  1.00000E-05 Dt=  1.00000E-05 [y] snes_conv_reason:   11
  newton =   1 [       1] linear =   113 [       113] cuts =  0 [   0]
  --> max chng: dpmx=   3.5384E-02 dtmpmx=   3.4971E-09

== TH FLOW =====================================================================
 Step      2 Time=  3.00000E-05 Dt=  2.00000E-05 [y] snes_conv_reason:   11
  newton =   1 [       2] linear =   127 [       240] cuts =  0 [   0]
  --> max chng: dpmx=   1.1097E-02 dtmpmx=   6.9195E-09

== TH FLOW =====================================================================
 Step      3 Time=  7.00000E-05 Dt=  4.00000E-05 [y] snes_conv_reason:   11
  newton =   1 [       3] linear =   116 [       356] cuts =  0 [   0]
  --> max chng: dpmx=   1.8264E-03 dtmpmx=   1.3814E-08

== TH FLOW =====================================================================
 Step      4 Time=  1.50000E-04 Dt=  8.00000E-05 [y] snes_conv_reason:   11
  newton =   1 [       4] linear =   113 [       469] cuts =  0 [   0]
  --> max chng: dpmx=   1.5599E-04 dtmpmx=   2.7623E-08

== TH FLOW =====================================================================
 Step      5 Time=  3.10000E-04 Dt=  1.60000E-04 [y] snes_conv_reason:   11
  newton =   1 [       5] linear =   122 [       591] cuts =  0 [   0]
  --> max chng: dpmx=   6.7351E-06 dtmpmx=   5.5246E-08

== TH FLOW =====================================================================
 Step      6 Time=  6.30000E-04 Dt=  3.20000E-04 [y] snes_conv_reason:   11
  newton =   1 [       6] linear =   126 [       717] cuts =  0 [   0]
  --> max chng: dpmx=   2.7718E-07 dtmpmx=   1.1049E-07

== TH FLOW =====================================================================
 Step      7 Time=  1.27000E-03 Dt=  6.40000E-04 [y] snes_conv_reason:   11
  newton =   1 [       7] linear =   126 [       843] cuts =  0 [   0]
  --> max chng: dpmx=   5.6601E-07 dtmpmx=   2.2099E-07

== TH FLOW =====================================================================
 Step      8 Time=  2.55000E-03 Dt=  1.28000E-03 [y] snes_conv_reason:   11
  newton =   1 [       8] linear =   125 [       968] cuts =  0 [   0]
  --> max chng: dpmx=   1.1550E-06 dtmpmx=   4.4197E-07

== TH FLOW =====================================================================
 Step      9 Time=  5.11000E-03 Dt=  2.56000E-03 [y] snes_conv_reason:   11
  newton =   1 [       9] linear =   123 [      1091] cuts =  0 [   0]
  --> max chng: dpmx=   2.3985E-06 dtmpmx=   8.8394E-07

== TH FLOW =====================================================================
 Step     10 Time=  1.02300E-02 Dt=  5.12000E-03 [y] snes_conv_reason:   11
  newton =   1 [      10] linear =   122 [      1213] cuts =  0 [   0]
  --> max chng: dpmx=   5.1574E-06 dtmpmx=   1.7679E-06

== TH FLOW =====================================================================
 Step     11 Time=  2.04700E-02 Dt=  1.02400E-02 [y] snes_conv_reason:   11
  newton =   1 [      11] linear =   127 [      1340] cuts =  0 [   0]
  --> max chng: dpmx=   1.1734E-05 dtmpmx=   3.5358E-06

== TH FLOW =====================================================================
 Step     12 Time=  4.09500E-02 Dt=  2.04800E-02 [y] snes_conv_reason:   11
  newton =   1 [      12] linear =   124 [      1464] cuts =  0 [   0]
  --> max chng: dpmx=   2.9190E-05 dtmpmx=   7.0715E-06

== TH FLOW =====================================================================
 Step     13 Time=  8.19100E-02 Dt=  4.09600E-02 [y] snes_conv_reason:   11
  newton =   1 [      13] linear =   129 [      1593] cuts =  0 [   0]
  --> max chng: dpmx=   8.0805E-05 dtmpmx=   1.4143E-05

== TH FLOW =====================================================================
 Step     14 Time=  1.00000E-01 Dt=  1.80900E-02 [y] snes_conv_reason:   11
  newton =   1 [      14] linear =   129 [      1722] cuts =  0 [   0]
  --> max chng: dpmx=   4.0098E-05 dtmpmx=   6.2463E-06

== TH FLOW =====================================================================
 Step     15 Time=  1.50000E-01 Dt=  5.00000E-02 [y] snes_conv_reason:   11
  newton =   1 [      15] linear =   133 [      1855] cuts =  0 [   0]
  --> max chng: dpmx=   1.4379E-04 dtmpmx=   1.7264E-05

== TH FLOW =====================================================================
 Step     16 Time=  2.00000E-01 Dt=  5.00000E-02 [y] snes_conv_reason:   11
  newton =   1 [      16] linear =   133 [      1988] cuts =  0 [   0]
  --> max chng: dpmx=   1.7662E-04 dtmpmx=   1.7264E-05

== TH FLOW =====================================================================
 Step     17 Time=  2.50000E-01 Dt=  5.00000E-02 [y] snes_conv_reason:   11
  newton =   3 [      19] linear =   379 [      2367] cuts =  0 [   0]
  --> max chng: dpmx=   4.0817E+02 dtmpmx=   3.3154E+00

== TH FLOW =====================================================================
 Step     18 Time=  3.00000E-01 Dt=  5.00000E-02 [y] snes_conv_reason:   11
  newton =   2 [      21] linear =   278 [      2645] cuts =  0 [   0]
  --> max chng: dpmx=   3.1492E+00 dtmpmx=   1.3252E+00

== TH FLOW =====================================================================
 Step     19 Time=  3.50000E-01 Dt=  5.00000E-02 [y] snes_conv_reason:   11
  newton =   2 [      23] linear =   270 [      2915] cuts =  0 [   0]
  --> max chng: dpmx=   1.9603E+00 dtmpmx=   9.1552E-01

== TH FLOW =====================================================================
 Step     20 Time=  4.00000E-01 Dt=  5.00000E-02 [y] snes_conv_reason:   11
  newton =   2 [      25] linear =   272 [      3187] cuts =  0 [   0]
  --> max chng: dpmx=   1.8254E+00 dtmpmx=   7.3493E-01

== TH FLOW =====================================================================
 Step     21 Time=  4.50000E-01 Dt=  5.00000E-02 [y] snes_conv_reason:   11
  newton =   2 [      27] linear =   269 [      3456] cuts =  0 [   0]
  --> max chng: dpmx=   1.7228E+00 dtmpmx=   6.2885E-01

== TH FLOW =====================================================================
 Step     22 Time=  5.00000E-01 Dt=  5.00000E-02 [y] snes_conv_reason:   11
  newton =   2 [      29] linear =   261 [      3717] cuts =  0 [   0]
  --> max chng: dpmx=   1.6540E+00 dtmpmx=   5.5660E-01

== TH FLOW =====================================================================
 Step     23 Time=  5.50000E-01 Dt=  5.00000E-02 [y] snes_conv_reason:    3
  newton =   1 [      30] linear =   135 [      3852] cuts =  0 [   0]
  --> max chng: dpmx=   1.6010E+00 dtmpmx=   5.0326E-01

== TH FLOW =====================================================================
 Step     24 Time=  6.00000E-01 Dt=  5.00000E-02 [y] snes_conv_reason:    3
  newton =   1 [      31] linear =   138 [      3990] cuts =  0 [   0]
  --> max chng: dpmx=   1.5530E+00 dtmpmx=   4.6119E-01

== TH FLOW =====================================================================
 Step     25 Time=  6.50000E-01 Dt=  5.00000E-02 [y] snes_conv_reason:    3
  newton =   1 [      32] linear =   134 [      4124] cuts =  0 [   0]
  --> max chng: dpmx=   1.5151E+00 dtmpmx=   4.2688E-01

== TH FLOW =====================================================================
 Step     26 Time=  7.00000E-01 Dt=  5.00000E-02 [y] snes_conv_reason:    3
  newton =   1 [      33] linear =   131 [      4255] cuts =  0 [   0]
  --> max chng: dpmx=   1.4854E+00 dtmpmx=   3.9810E-01

== TH FLOW =====================================================================
 Step     27 Time=  7.50000E-01 Dt=  5.00000E-02 [y] snes_conv_reason:    3
  newton =   1 [      34] linear =   130 [      4385] cuts =  0 [   0]
  --> max chng: dpmx=   1.4573E+00 dtmpmx=   3.7344E-01

== TH FLOW =====================================================================
 Step     28 Time=  8.00000E-01 Dt=  5.00000E-02 [y] snes_conv_reason:    3
  newton =   1 [      35] linear =   133 [      4518] cuts =  0 [   0]
  --> max chng: dpmx=   1.4334E+00 dtmpmx=   3.5433E-01

== TH FLOW =====================================================================
 Step     29 Time=  8.50000E-01 Dt=  5.00000E-02 [y] snes_conv_reason:    3
  newton =   1 [      36] linear =   140 [      4658] cuts =  0 [   0]
  --> max chng: dpmx=   1.4098E+00 dtmpmx=   3.3784E-01

== TH FLOW =====================================================================
 Step     30 Time=  9.00000E-01 Dt=  5.00000E-02 [y] snes_conv_reason:    3
  newton =   1 [      37] linear =   137 [      4795] cuts =  0 [   0]
  --> max chng: dpmx=   1.3914E+00 dtmpmx=   3.2281E-01

== TH FLOW =====================================================================
 Step     31 Time=  9.50000E-01 Dt=  5.00000E-02 [y] snes_conv_reason:    3
  newton =   1 [      38] linear =   136 [      4931] cuts =  0 [   0]
  --> max chng: dpmx=   1.3737E+00 dtmpmx=   3.0903E-01

== TH FLOW =====================================================================
 Step     32 Time=  1.00000E+00 Dt=  5.00000E-02 [y] snes_conv_reason:    3
  newton =   1 [      39] linear =   136 [      5067] cuts =  0 [   0]
  --> max chng: dpmx=   1.3567E+00 dtmpmx=   2.9634E-01

== TH FLOW =====================================================================
 Step     33 Time=  1.05000E+00 Dt=  5.00000E-02 [y] snes_conv_reason:    3
  newton =   1 [      40] linear =   132 [      5199] cuts =  0 [   0]
  --> max chng: dpmx=   1.3425E+00 dtmpmx=   2.8459E-01

== TH FLOW =====================================================================
 Step     34 Time=  1.10000E+00 Dt=  5.00000E-02 [y] snes_conv_reason:    3
  newton =   1 [      41] linear =   135 [      5334] cuts =  0 [   0]
  --> max chng: dpmx=   1.3269E+00 dtmpmx=   2.7369E-01

== TH FLOW =====================================================================
 Step     35 Time=  1.15000E+00 Dt=  5.00000E-02 [y] snes_conv_reason:    3
  newton =   1 [      42] linear =   137 [      5471] cuts =  0 [   0]
  --> max chng: dpmx=   1.3133E+00 dtmpmx=   2.6497E-01

== TH FLOW =====================================================================
 Step     36 Time=  1.20000E+00 Dt=  5.00000E-02 [y] snes_conv_reason:    3
  newton =   1 [      43] linear =   136 [      5607] cuts =  0 [   0]
  --> max chng: dpmx=   1.3002E+00 dtmpmx=   2.5681E-01

== TH FLOW =====================================================================
 Step     37 Time=  1.25000E+00 Dt=  5.00000E-02 [y] snes_conv_reason:    3
  newton =   1 [      44] linear =   112 [      5719] cuts =  0 [   0]
  --> max chng: dpmx=   1.2885E+00 dtmpmx=   2.4902E-01

== TH FLOW =====================================================================
 Step     38 Time=  1.30000E+00 Dt=  5.00000E-02 [y] snes_conv_reason:    3
  newton =   1 [      45] linear =   132 [      5851] cuts =  0 [   0]
  --> max chng: dpmx=   1.2763E+00 dtmpmx=   2.4158E-01

== TH FLOW =====================================================================
 Step     39 Time=  1.35000E+00 Dt=  5.00000E-02 [y] snes_conv_reason:    3
  newton =   1 [      46] linear =   135 [      5986] cuts =  0 [   0]
  --> max chng: dpmx=   1.2661E+00 dtmpmx=   2.3447E-01

== TH FLOW =====================================================================
 Step     40 Time=  1.40000E+00 Dt=  5.00000E-02 [y] snes_conv_reason:    3
  newton =   1 [      47] linear =   133 [      6119] cuts =  0 [   0]
  --> max chng: dpmx=   1.2551E+00 dtmpmx=   2.2768E-01

== TH FLOW =====================================================================
 Step     41 Time=  1.45000E+00 Dt=  5.00000E-02 [y] snes_conv_reason:    3
  newton =   1 [      48] linear =   133 [      6252] cuts =  0 [   0]
  --> max chng: dpmx=   1.2443E+00 dtmpmx=   2.2156E-01

== TH FLOW =====================================================================
 Step     42 Time=  1.50000E+00 Dt=  5.00000E-02 [y] snes_conv_reason:    3
  newton =   1 [      49] linear =   137 [      6389] cuts =  0 [   0]
  --> max chng: dpmx=   1.2343E+00 dtmpmx=   2.1629E-01

== TH FLOW =====================================================================
 Step     43 Time=  1.55000E+00 Dt=  5.00000E-02 [y] snes_conv_reason:    3
  newton =   1 [      50] linear =   134 [      6523] cuts =  0 [   0]
  --> max chng: dpmx=   1.2243E+00 dtmpmx=   2.1115E-01

== TH FLOW =====================================================================
 Step     44 Time=  1.60000E+00 Dt=  5.00000E-02 [y] snes_conv_reason:    3
  newton =   1 [      51] linear =   135 [      6658] cuts =  0 [   0]
  --> max chng: dpmx=   1.2149E+00 dtmpmx=   2.0616E-01

== TH FLOW =====================================================================
 Step     45 Time=  1.65000E+00 Dt=  5.00000E-02 [y] snes_conv_reason:    3
  newton =   1 [      52] linear =   130 [      6788] cuts =  0 [   0]
  --> max chng: dpmx=   1.2058E+00 dtmpmx=   2.0130E-01

== TH FLOW =====================================================================
 Step     46 Time=  1.70000E+00 Dt=  5.00000E-02 [y] snes_conv_reason:    3
  newton =   1 [      53] linear =   126 [      6914] cuts =  0 [   0]
  --> max chng: dpmx=   1.1965E+00 dtmpmx=   1.9658E-01

== TH FLOW =====================================================================
 Step     47 Time=  1.75000E+00 Dt=  5.00000E-02 [y] snes_conv_reason:    3
  newton =   1 [      54] linear =   135 [      7049] cuts =  0 [   0]
  --> max chng: dpmx=   1.1878E+00 dtmpmx=   1.9200E-01

== TH FLOW =====================================================================
 Step     48 Time=  1.80000E+00 Dt=  5.00000E-02 [y] snes_conv_reason:    3
  newton =   1 [      55] linear =   135 [      7184] cuts =  0 [   0]
  --> max chng: dpmx=   1.1792E+00 dtmpmx=   1.8821E-01

== TH FLOW =====================================================================
 Step     49 Time=  1.85000E+00 Dt=  5.00000E-02 [y] snes_conv_reason:    3
  newton =   1 [      56] linear =   133 [      7317] cuts =  0 [   0]
  --> max chng: dpmx=   1.1709E+00 dtmpmx=   1.8452E-01

== TH FLOW =====================================================================
 Step     50 Time=  1.90000E+00 Dt=  5.00000E-02 [y] snes_conv_reason:    3
  newton =   1 [      57] linear =   132 [      7449] cuts =  0 [   0]
  --> max chng: dpmx=   1.1621E+00 dtmpmx=   1.8090E-01

== TH FLOW =====================================================================
 Step     51 Time=  1.95000E+00 Dt=  5.00000E-02 [y] snes_conv_reason:    3
  newton =   1 [      58] linear =   134 [      7583] cuts =  0 [   0]
  --> max chng: dpmx=   1.1544E+00 dtmpmx=   1.7733E-01

== TH FLOW =====================================================================
 Step     52 Time=  2.00000E+00 Dt=  5.00000E-02 [y] snes_conv_reason:    3
  newton =   1 [      59] linear =   127 [      7710] cuts =  0 [   0]
  --> max chng: dpmx=   1.1461E+00 dtmpmx=   1.7383E-01

== TH FLOW =====================================================================
 Step     53 Time=  2.05000E+00 Dt=  5.00000E-02 [y] snes_conv_reason:    3
  newton =   1 [      60] linear =   133 [      7843] cuts =  0 [   0]
  --> max chng: dpmx=   1.1382E+00 dtmpmx=   1.7040E-01

== TH FLOW =====================================================================
 Step     54 Time=  2.10000E+00 Dt=  5.00000E-02 [y] snes_conv_reason:    3
  newton =   1 [      61] linear =   133 [      7976] cuts =  0 [   0]
  --> max chng: dpmx=   1.1300E+00 dtmpmx=   1.6733E-01

== TH FLOW =====================================================================
 Step     55 Time=  2.15000E+00 Dt=  5.00000E-02 [y] snes_conv_reason:    3
  newton =   1 [      62] linear =   134 [      8110] cuts =  0 [   0]
  --> max chng: dpmx=   1.1224E+00 dtmpmx=   1.6454E-01

== TH FLOW =====================================================================
 Step     56 Time=  2.20000E+00 Dt=  5.00000E-02 [y] snes_conv_reason:    3
  newton =   1 [      63] linear =   127 [      8237] cuts =  0 [   0]
  --> max chng: dpmx=   1.1148E+00 dtmpmx=   1.6176E-01

== TH FLOW =====================================================================
 Step     57 Time=  2.25000E+00 Dt=  5.00000E-02 [y] snes_conv_reason:    3
  newton =   1 [      64] linear =   128 [      8365] cuts =  0 [   0]
  --> max chng: dpmx=   1.1069E+00 dtmpmx=   1.5902E-01

== TH FLOW =====================================================================
 Step     58 Time=  2.30000E+00 Dt=  5.00000E-02 [y] snes_conv_reason:    3
  newton =   1 [      65] linear =   132 [      8497] cuts =  0 [   0]
  --> max chng: dpmx=   1.0991E+00 dtmpmx=   1.5631E-01

== TH FLOW =====================================================================
 Step     59 Time=  2.35000E+00 Dt=  5.00000E-02 [y] snes_conv_reason:    3
  newton =   1 [      66] linear =   133 [      8630] cuts =  0 [   0]
  --> max chng: dpmx=   1.0926E+00 dtmpmx=   1.5363E-01

== TH FLOW =====================================================================
 Step     60 Time=  2.40000E+00 Dt=  5.00000E-02 [y] snes_conv_reason:    3
  newton =   1 [      67] linear =   133 [      8763] cuts =  0 [   0]
  --> max chng: dpmx=   1.0846E+00 dtmpmx=   1.5107E-01

== TH FLOW =====================================================================
 Step     61 Time=  2.45000E+00 Dt=  5.00000E-02 [y] snes_conv_reason:    3
  newton =   1 [      68] linear =   134 [      8897] cuts =  0 [   0]
  --> max chng: dpmx=   1.0771E+00 dtmpmx=   1.4886E-01

== TH FLOW =====================================================================
 Step     62 Time=  2.50000E+00 Dt=  5.00000E-02 [y] snes_conv_reason:    3
  newton =   1 [      69] linear =   134 [      9031] cuts =  0 [   0]
  --> max chng: dpmx=   1.0705E+00 dtmpmx=   1.4667E-01

== TH FLOW =====================================================================
 Step     63 Time=  2.55000E+00 Dt=  5.00000E-02 [y] snes_conv_reason:    3
  newton =   1 [      70] linear =   131 [      9162] cuts =  0 [   0]
  --> max chng: dpmx=   1.0633E+00 dtmpmx=   1.4448E-01

== TH FLOW =====================================================================
 Step     64 Time=  2.60000E+00 Dt=  5.00000E-02 [y] snes_conv_reason:    3
  newton =   1 [      71] linear =   131 [      9293] cuts =  0 [   0]
  --> max chng: dpmx=   1.0561E+00 dtmpmx=   1.4231E-01

== TH FLOW =====================================================================
 Step     65 Time=  2.65000E+00 Dt=  5.00000E-02 [y] snes_conv_reason:    3
  newton =   1 [      72] linear =   126 [      9419] cuts =  0 [   0]
  --> max chng: dpmx=   1.0488E+00 dtmpmx=   1.4016E-01

== TH FLOW =====================================================================
 Step     66 Time=  2.70000E+00 Dt=  5.00000E-02 [y] snes_conv_reason:    3
  newton =   1 [      73] linear =   133 [      9552] cuts =  0 [   0]
  --> max chng: dpmx=   1.0415E+00 dtmpmx=   1.3802E-01

== TH FLOW =====================================================================
 Step     67 Time=  2.75000E+00 Dt=  5.00000E-02 [y] snes_conv_reason:    3
  newton =   1 [      74] linear =   123 [      9675] cuts =  0 [   0]
  --> max chng: dpmx=   1.0353E+00 dtmpmx=   1.3618E-01

== TH FLOW =====================================================================
 Step     68 Time=  2.80000E+00 Dt=  5.00000E-02 [y] snes_conv_reason:    3
  newton =   1 [      75] linear =   128 [      9803] cuts =  0 [   0]
  --> max chng: dpmx=   1.0283E+00 dtmpmx=   1.3440E-01

== TH FLOW =====================================================================
 Step     69 Time=  2.85000E+00 Dt=  5.00000E-02 [y] snes_conv_reason:    3
  newton =   1 [      76] linear =   132 [      9935] cuts =  0 [   0]
  --> max chng: dpmx=   1.0213E+00 dtmpmx=   1.3261E-01

== TH FLOW =====================================================================
 Step     70 Time=  2.90000E+00 Dt=  5.00000E-02 [y] snes_conv_reason:    3
  newton =   1 [      77] linear =   133 [     10068] cuts =  0 [   0]
  --> max chng: dpmx=   1.0145E+00 dtmpmx=   1.3083E-01

== TH FLOW =====================================================================
 Step     71 Time=  2.95000E+00 Dt=  5.00000E-02 [y] snes_conv_reason:    3
  newton =   1 [      78] linear =   130 [     10198] cuts =  0 [   0]
  --> max chng: dpmx=   1.0081E+00 dtmpmx=   1.2906E-01

== TH FLOW =====================================================================
 Step     72 Time=  3.00000E+00 Dt=  5.00000E-02 [y] snes_conv_reason:    3
  newton =   1 [      79] linear =   131 [     10329] cuts =  0 [   0]
  --> max chng: dpmx=   1.0010E+00 dtmpmx=   1.2729E-01

== TH FLOW =====================================================================
 Step     73 Time=  3.05000E+00 Dt=  5.00000E-02 [y] snes_conv_reason:   11
  newton =   1 [      80] linear =   135 [     10464] cuts =  0 [   0]
  --> max chng: dpmx=   9.9423E-01 dtmpmx=   1.2568E-01

== TH FLOW =====================================================================
 Step     74 Time=  3.10000E+00 Dt=  5.00000E-02 [y] snes_conv_reason:   11
  newton =   1 [      81] linear =   118 [     10582] cuts =  0 [   0]
  --> max chng: dpmx=   9.8756E-01 dtmpmx=   1.2419E-01

== TH FLOW =====================================================================
 Step     75 Time=  3.15000E+00 Dt=  5.00000E-02 [y] snes_conv_reason:   11
  newton =   1 [      82] linear =   130 [     10712] cuts =  0 [   0]
  --> max chng: dpmx=   9.8106E-01 dtmpmx=   1.2271E-01

== TH FLOW =====================================================================
 Step     76 Time=  3.20000E+00 Dt=  5.00000E-02 [y] snes_conv_reason:   11
  newton =   1 [      83] linear =   134 [     10846] cuts =  0 [   0]
  --> max chng: dpmx=   9.7471E-01 dtmpmx=   1.2122E-01

== TH FLOW =====================================================================
 Step     77 Time=  3.25000E+00 Dt=  5.00000E-02 [y] snes_conv_reason:   11
  newton =   1 [      84] linear =   135 [     10981] cuts =  0 [   0]
  --> max chng: dpmx=   9.6775E-01 dtmpmx=   1.1973E-01

== TH FLOW =====================================================================
 Step     78 Time=  3.30000E+00 Dt=  5.00000E-02 [y] snes_conv_reason:   11
  newton =   1 [      85] linear =   136 [     11117] cuts =  0 [   0]
  --> max chng: dpmx=   9.6158E-01 dtmpmx=   1.1825E-01

== TH FLOW =====================================================================
 Step     79 Time=  3.35000E+00 Dt=  5.00000E-02 [y] snes_conv_reason:   11
  newton =   1 [      86] linear =   130 [     11247] cuts =  0 [   0]
  --> max chng: dpmx=   9.5465E-01 dtmpmx=   1.1681E-01

== TH FLOW =====================================================================
 Step     80 Time=  3.40000E+00 Dt=  5.00000E-02 [y] snes_conv_reason:   11
  newton =   1 [      87] linear =   132 [     11379] cuts =  0 [   0]
  --> max chng: dpmx=   9.4865E-01 dtmpmx=   1.1555E-01

== TH FLOW =====================================================================
 Step     81 Time=  3.45000E+00 Dt=  5.00000E-02 [y] snes_conv_reason:   11
  newton =   1 [      88] linear =   130 [     11509] cuts =  0 [   0]
  --> max chng: dpmx=   9.4131E-01 dtmpmx=   1.1430E-01

== TH FLOW =====================================================================
 Step     82 Time=  3.50000E+00 Dt=  5.00000E-02 [y] snes_conv_reason:   11
  newton =   1 [      89] linear =   136 [     11645] cuts =  0 [   0]
  --> max chng: dpmx=   9.3535E-01 dtmpmx=   1.1303E-01

== TH FLOW =====================================================================
 Step     83 Time=  3.55000E+00 Dt=  5.00000E-02 [y] snes_conv_reason:   11
  newton =   1 [      90] linear =   131 [     11776] cuts =  0 [   0]
  --> max chng: dpmx=   9.2941E-01 dtmpmx=   1.1177E-01

== TH FLOW =====================================================================
 Step     84 Time=  3.60000E+00 Dt=  5.00000E-02 [y] snes_conv_reason:   11
  newton =   1 [      91] linear =   126 [     11902] cuts =  0 [   0]
  --> max chng: dpmx=   9.2274E-01 dtmpmx=   1.1050E-01

== TH FLOW =====================================================================
 Step     85 Time=  3.65000E+00 Dt=  5.00000E-02 [y] snes_conv_reason:   11
  newton =   1 [      92] linear =   130 [     12032] cuts =  0 [   0]
  --> max chng: dpmx=   9.1592E-01 dtmpmx=   1.0923E-01

== TH FLOW =====================================================================
 Step     86 Time=  3.70000E+00 Dt=  5.00000E-02 [y] snes_conv_reason:   11
  newton =   1 [      93] linear =   130 [     12162] cuts =  0 [   0]
  --> max chng: dpmx=   9.1005E-01 dtmpmx=   1.0813E-01

== TH FLOW =====================================================================
 Step     87 Time=  3.75000E+00 Dt=  5.00000E-02 [y] snes_conv_reason:   11
  newton =   1 [      94] linear =   130 [     12292] cuts =  0 [   0]
  --> max chng: dpmx=   9.0341E-01 dtmpmx=   1.0705E-01

== TH FLOW =====================================================================
 Step     88 Time=  3.80000E+00 Dt=  5.00000E-02 [y] snes_conv_reason:   11
  newton =   1 [      95] linear =   128 [     12420] cuts =  0 [   0]
  --> max chng: dpmx=   8.9735E-01 dtmpmx=   1.0597E-01

== TH FLOW =====================================================================
 Step     89 Time=  3.85000E+00 Dt=  5.00000E-02 [y] snes_conv_reason:   11
  newton =   1 [      96] linear =   129 [     12549] cuts =  0 [   0]
  --> max chng: dpmx=   8.9102E-01 dtmpmx=   1.0487E-01

== TH FLOW =====================================================================
 Step     90 Time=  3.90000E+00 Dt=  5.00000E-02 [y] snes_conv_reason:   11
  newton =   1 [      97] linear =   134 [     12683] cuts =  0 [   0]
  --> max chng: dpmx=   8.8440E-01 dtmpmx=   1.0378E-01

== TH FLOW =====================================================================
 Step     91 Time=  3.95000E+00 Dt=  5.00000E-02 [y] snes_conv_reason:   11
  newton =   1 [      98] linear =   126 [     12809] cuts =  0 [   0]
  --> max chng: dpmx=   8.7818E-01 dtmpmx=   1.0268E-01

== TH FLOW =====================================================================
 Step     92 Time=  4.00000E+00 Dt=  5.00000E-02 [y] snes_conv_reason:   11
  newton =   1 [      99] linear =   129 [     12938] cuts =  0 [   0]
  --> max chng: dpmx=   8.7260E-01 dtmpmx=   1.0167E-01

== TH FLOW =====================================================================
 Step     93 Time=  4.05000E+00 Dt=  5.00000E-02 [y] snes_conv_reason:   11
  newton =   1 [     100] linear =   131 [     13069] cuts =  0 [   0]
  --> max chng: dpmx=   8.6568E-01 dtmpmx=   1.0074E-01

== TH FLOW =====================================================================
 Step     94 Time=  4.10000E+00 Dt=  5.00000E-02 [y] snes_conv_reason:   11
  newton =   1 [     101] linear =   135 [     13204] cuts =  0 [   0]
  --> max chng: dpmx=   8.5977E-01 dtmpmx=   9.9793E-02

== TH FLOW =====================================================================
 Step     95 Time=  4.15000E+00 Dt=  5.00000E-02 [y] snes_conv_reason:   11
  newton =   1 [     102] linear =   120 [     13324] cuts =  0 [   0]
  --> max chng: dpmx=   8.5363E-01 dtmpmx=   9.8843E-02

== TH FLOW =====================================================================
 Step     96 Time=  4.20000E+00 Dt=  5.00000E-02 [y] snes_conv_reason:   11
  newton =   1 [     103] linear =   128 [     13452] cuts =  0 [   0]
  --> max chng: dpmx=   8.4745E-01 dtmpmx=   9.7888E-02

== TH FLOW =====================================================================
 Step     97 Time=  4.25000E+00 Dt=  5.00000E-02 [y] snes_conv_reason:   11
  newton =   1 [     104] linear =   128 [     13580] cuts =  0 [   0]
  --> max chng: dpmx=   8.4115E-01 dtmpmx=   9.6928E-02

== TH FLOW =====================================================================
 Step     98 Time=  4.30000E+00 Dt=  5.00000E-02 [y] snes_conv_reason:   11
  newton =   1 [     105] linear =   136 [     13716] cuts =  0 [   0]
  --> max chng: dpmx=   8.3519E-01 dtmpmx=   9.5999E-02

== TH FLOW =====================================================================
 Step     99 Time=  4.35000E+00 Dt=  5.00000E-02 [y] snes_conv_reason:   11
  newton =   1 [     106] linear =   130 [     13846] cuts =  0 [   0]
  --> max chng: dpmx=   8.2894E-01 dtmpmx=   9.5178E-02

== TH FLOW =====================================================================
 Step    100 Time=  4.40000E+00 Dt=  5.00000E-02 [y] snes_conv_reason:   11
  newton =   1 [     107] linear =   125 [     13971] cuts =  0 [   0]
  --> max chng: dpmx=   8.2304E-01 dtmpmx=   9.4350E-02

== TH FLOW =====================================================================
 Step    101 Time=  4.45000E+00 Dt=  5.00000E-02 [y] snes_conv_reason:   11
  newton =   1 [     108] linear =   132 [     14103] cuts =  0 [   0]
  --> max chng: dpmx=   8.1660E-01 dtmpmx=   9.3515E-02

== TH FLOW =====================================================================
 Step    102 Time=  4.50000E+00 Dt=  5.00000E-02 [y] snes_conv_reason:   11
  newton =   1 [     109] linear =   140 [     14243] cuts =  0 [   0]
  --> max chng: dpmx=   8.1059E-01 dtmpmx=   9.2675E-02

== TH FLOW =====================================================================
 Step    103 Time=  4.55000E+00 Dt=  5.00000E-02 [y] snes_conv_reason:   11
  newton =   1 [     110] linear =   133 [     14376] cuts =  0 [   0]
  --> max chng: dpmx=   8.0456E-01 dtmpmx=   9.1829E-02

== TH FLOW =====================================================================
 Step    104 Time=  4.60000E+00 Dt=  5.00000E-02 [y] snes_conv_reason:   11
  newton =   1 [     111] linear =   138 [     14514] cuts =  0 [   0]
  --> max chng: dpmx=   7.9849E-01 dtmpmx=   9.0979E-02

== TH FLOW =====================================================================
 Step    105 Time=  4.65000E+00 Dt=  5.00000E-02 [y] snes_conv_reason:   11
  newton =   1 [     112] linear =   138 [     14652] cuts =  0 [   0]
  --> max chng: dpmx=   7.9241E-01 dtmpmx=   9.0242E-02

== TH FLOW =====================================================================
 Step    106 Time=  4.70000E+00 Dt=  5.00000E-02 [y] snes_conv_reason:   11
  newton =   1 [     113] linear =   128 [     14780] cuts =  0 [   0]
  --> max chng: dpmx=   7.8629E-01 dtmpmx=   8.9509E-02

== TH FLOW =====================================================================
 Step    107 Time=  4.75000E+00 Dt=  5.00000E-02 [y] snes_conv_reason:   11
  newton =   1 [     114] linear =   124 [     14904] cuts =  0 [   0]
  --> max chng: dpmx=   7.8032E-01 dtmpmx=   8.8770E-02

== TH FLOW =====================================================================
 Step    108 Time=  4.80000E+00 Dt=  5.00000E-02 [y] snes_conv_reason:   11
  newton =   1 [     115] linear =   133 [     15037] cuts =  0 [   0]
  --> max chng: dpmx=   7.7435E-01 dtmpmx=   8.8024E-02

== TH FLOW =====================================================================
 Step    109 Time=  4.85000E+00 Dt=  5.00000E-02 [y] snes_conv_reason:   11
  newton =   1 [     116] linear =   133 [     15170] cuts =  0 [   0]
  --> max chng: dpmx=   7.6789E-01 dtmpmx=   8.7273E-02

== TH FLOW =====================================================================
 Step    110 Time=  4.90000E+00 Dt=  5.00000E-02 [y] snes_conv_reason:   11
  newton =   1 [     117] linear =   131 [     15301] cuts =  0 [   0]
  --> max chng: dpmx=   7.6261E-01 dtmpmx=   8.6517E-02

== TH FLOW =====================================================================
 Step    111 Time=  4.95000E+00 Dt=  5.00000E-02 [y] snes_conv_reason:   11
  newton =   1 [     118] linear =   130 [     15431] cuts =  0 [   0]
  --> max chng: dpmx=   7.5607E-01 dtmpmx=   8.5824E-02

== TH FLOW =====================================================================
 Step    112 Time=  5.00000E+00 Dt=  5.00000E-02 [y] snes_conv_reason:   11
  newton =   1 [     119] linear =   128 [     15559] cuts =  0 [   0]
  --> max chng: dpmx=   7.5015E-01 dtmpmx=   8.5172E-02

== TH FLOW =====================================================================
 Step    113 Time=  5.05000E+00 Dt=  5.00000E-02 [y] snes_conv_reason:   11
  newton =   1 [     120] linear =   127 [     15686] cuts =  0 [   0]
  --> max chng: dpmx=   7.4424E-01 dtmpmx=   8.4513E-02

== TH FLOW =====================================================================
 Step    114 Time=  5.10000E+00 Dt=  5.00000E-02 [y] snes_conv_reason:   11
  newton =   1 [     121] linear =   125 [     15811] cuts =  0 [   0]
  --> max chng: dpmx=   7.3793E-01 dtmpmx=   8.3847E-02

== TH FLOW =====================================================================
 Step    115 Time=  5.15000E+00 Dt=  5.00000E-02 [y] snes_conv_reason:   11
  newton =   1 [     122] linear =   130 [     15941] cuts =  0 [   0]
  --> max chng: dpmx=   7.3170E-01 dtmpmx=   8.3176E-02

== TH FLOW =====================================================================
 Step    116 Time=  5.20000E+00 Dt=  5.00000E-02 [y] snes_conv_reason:   11
  newton =   1 [     123] linear =   131 [     16072] cuts =  0 [   0]
  --> max chng: dpmx=   7.2641E-01 dtmpmx=   8.2499E-02

== TH FLOW =====================================================================
 Step    117 Time=  5.25000E+00 Dt=  5.00000E-02 [y] snes_conv_reason:   11
  newton =   1 [     124] linear =   130 [     16202] cuts =  0 [   0]
  --> max chng: dpmx=   7.1996E-01 dtmpmx=   8.1845E-02

== TH FLOW =====================================================================
 Step    118 Time=  5.30000E+00 Dt=  5.00000E-02 [y] snes_conv_reason:   11
  newton =   1 [     125] linear =   129 [     16331] cuts =  0 [   0]
  --> max chng: dpmx=   7.1427E-01 dtmpmx=   8.1261E-02

== TH FLOW =====================================================================
 Step    119 Time=  5.35000E+00 Dt=  5.00000E-02 [y] snes_conv_reason:   11
  newton =   1 [     126] linear =   122 [     16453] cuts =  0 [   0]
  --> max chng: dpmx=   7.0882E-01 dtmpmx=   8.0670E-02

== TH FLOW =====================================================================
 Step    120 Time=  5.40000E+00 Dt=  5.00000E-02 [y] snes_conv_reason:   11
  newton =   1 [     127] linear =   134 [     16587] cuts =  0 [   0]
  --> max chng: dpmx=   7.0230E-01 dtmpmx=   8.0072E-02

== TH FLOW =====================================================================
 Step    121 Time=  5.45000E+00 Dt=  5.00000E-02 [y] snes_conv_reason:   11
  newton =   1 [     128] linear =   128 [     16715] cuts =  0 [   0]
  --> max chng: dpmx=   6.9639E-01 dtmpmx=   7.9468E-02

== TH FLOW =====================================================================
 Step    122 Time=  5.50000E+00 Dt=  5.00000E-02 [y] snes_conv_reason:   11
  newton =   1 [     129] linear =   129 [     16844] cuts =  0 [   0]
  --> max chng: dpmx=   6.9051E-01 dtmpmx=   7.8859E-02

== TH FLOW =====================================================================
 Step    123 Time=  5.55000E+00 Dt=  5.00000E-02 [y] snes_conv_reason:   11
  newton =   1 [     130] linear =   125 [     16969] cuts =  0 [   0]
  --> max chng: dpmx=   6.8479E-01 dtmpmx=   7.8245E-02

== TH FLOW =====================================================================
 Step    124 Time=  5.60000E+00 Dt=  5.00000E-02 [y] snes_conv_reason:   11
  newton =   1 [     131] linear =   130 [     17099] cuts =  0 [   0]
  --> max chng: dpmx=   6.7890E-01 dtmpmx=   7.7714E-02

== TH FLOW =====================================================================
 Step    125 Time=  5.65000E+00 Dt=  5.00000E-02 [y] snes_conv_reason:   11
  newton =   1 [     132] linear =   130 [     17229] cuts =  0 [   0]
  --> max chng: dpmx=   6.7293E-01 dtmpmx=   7.7180E-02

== TH FLOW =====================================================================
 Step    126 Time=  5.70000E+00 Dt=  5.00000E-02 [y] snes_conv_reason:   11
  newton =   1 [     133] linear =   126 [     17355] cuts =  0 [   0]
  --> max chng: dpmx=   6.6670E-01 dtmpmx=   7.6641E-02

== TH FLOW =====================================================================
 Step    127 Time=  5.75000E+00 Dt=  5.00000E-02 [y] snes_conv_reason:   11
  newton =   1 [     134] linear =   128 [     17483] cuts =  0 [   0]
  --> max chng: dpmx=   6.6140E-01 dtmpmx=   7.6095E-02

== TH FLOW =====================================================================
 Step    128 Time=  5.80000E+00 Dt=  5.00000E-02 [y] snes_conv_reason:   11
  newton =   1 [     135] linear =   129 [     17612] cuts =  0 [   0]
  --> max chng: dpmx=   6.5527E-01 dtmpmx=   7.5544E-02

== TH FLOW =====================================================================
 Step    129 Time=  5.85000E+00 Dt=  5.00000E-02 [y] snes_conv_reason:   11
  newton =   1 [     136] linear =   130 [     17742] cuts =  0 [   0]
  --> max chng: dpmx=   6.4908E-01 dtmpmx=   7.4988E-02

== TH FLOW =====================================================================
 Step    130 Time=  5.90000E+00 Dt=  5.00000E-02 [y] snes_conv_reason:   11
  newton =   1 [     137] linear =   130 [     17872] cuts =  0 [   0]
  --> max chng: dpmx=   6.4317E-01 dtmpmx=   7.4479E-02

== TH FLOW =====================================================================
 Step    131 Time=  5.95000E+00 Dt=  5.00000E-02 [y] snes_conv_reason:   11
  newton =   1 [     138] linear =   131 [     18003] cuts =  0 [   0]
  --> max chng: dpmx=   6.3786E-01 dtmpmx=   7.3996E-02

== TH FLOW =====================================================================
 Step    132 Time=  6.00000E+00 Dt=  5.00000E-02 [y] snes_conv_reason:   11
  newton =   1 [     139] linear =   126 [     18129] cuts =  0 [   0]
  --> max chng: dpmx=   6.3129E-01 dtmpmx=   7.3507E-02

== TH FLOW =====================================================================
 Step    133 Time=  6.05000E+00 Dt=  5.00000E-02 [y] snes_conv_reason:   11
  newton =   1 [     140] linear =   132 [     18261] cuts =  0 [   0]
  --> max chng: dpmx=   6.2577E-01 dtmpmx=   7.3012E-02

== TH FLOW =====================================================================
 Step    134 Time=  6.10000E+00 Dt=  5.00000E-02 [y] snes_conv_reason:   11
  newton =   1 [     141] linear =   126 [     18387] cuts =  0 [   0]
  --> max chng: dpmx=   6.2017E-01 dtmpmx=   7.2511E-02

== TH FLOW =====================================================================
 Step    135 Time=  6.15000E+00 Dt=  5.00000E-02 [y] snes_conv_reason:   11
  newton =   1 [     142] linear =   130 [     18517] cuts =  0 [   0]
  --> max chng: dpmx=   6.1661E-01 dtmpmx=   7.2005E-02

== TH FLOW =====================================================================
 Step    136 Time=  6.20000E+00 Dt=  5.00000E-02 [y] snes_conv_reason:   11
  newton =   1 [     143] linear =   136 [     18653] cuts =  0 [   0]
  --> max chng: dpmx=   6.2111E-01 dtmpmx=   7.1517E-02

== TH FLOW =====================================================================
 Step    137 Time=  6.25000E+00 Dt=  5.00000E-02 [y] snes_conv_reason:   11
  newton =   1 [     144] linear =   111 [     18764] cuts =  0 [   0]
  --> max chng: dpmx=   6.2564E-01 dtmpmx=   7.1078E-02

== TH FLOW =====================================================================
 Step    138 Time=  6.30000E+00 Dt=  5.00000E-02 [y] snes_conv_reason:   11
  newton =   1 [     145] linear =   132 [     18896] cuts =  0 [   0]
  --> max chng: dpmx=   6.2989E-01 dtmpmx=   7.0632E-02

== TH FLOW =====================================================================
 Step    139 Time=  6.35000E+00 Dt=  5.00000E-02 [y] snes_conv_reason:   11
  newton =   1 [     146] linear =   130 [     19026] cuts =  0 [   0]
  --> max chng: dpmx=   6.3425E-01 dtmpmx=   7.0181E-02

== TH FLOW =====================================================================
 Step    140 Time=  6.40000E+00 Dt=  5.00000E-02 [y] snes_conv_reason:   11
  newton =   1 [     147] linear =   128 [     19154] cuts =  0 [   0]
  --> max chng: dpmx=   6.3871E-01 dtmpmx=   6.9724E-02

== TH FLOW =====================================================================
 Step    141 Time=  6.45000E+00 Dt=  5.00000E-02 [y] snes_conv_reason:   11
  newton =   1 [     148] linear =   129 [     19283] cuts =  0 [   0]
  --> max chng: dpmx=   6.4310E-01 dtmpmx=   6.9262E-02

== TH FLOW =====================================================================
 Step    142 Time=  6.50000E+00 Dt=  5.00000E-02 [y] snes_conv_reason:   11
  newton =   1 [     149] linear =   133 [     19416] cuts =  0 [   0]
  --> max chng: dpmx=   6.4782E-01 dtmpmx=   6.8795E-02

== TH FLOW =====================================================================
 Step    143 Time=  6.55000E+00 Dt=  5.00000E-02 [y] snes_conv_reason:   11
  newton =   1 [     150] linear =   131 [     19547] cuts =  0 [   0]
  --> max chng: dpmx=   6.5188E-01 dtmpmx=   6.8392E-02

== TH FLOW =====================================================================
 Step    144 Time=  6.60000E+00 Dt=  5.00000E-02 [y] snes_conv_reason:   11
  newton =   1 [     151] linear =   135 [     19682] cuts =  0 [   0]
  --> max chng: dpmx=   6.5664E-01 dtmpmx=   6.7984E-02

== TH FLOW =====================================================================
 Step    145 Time=  6.65000E+00 Dt=  5.00000E-02 [y] snes_conv_reason:   11
  newton =   1 [     152] linear =   129 [     19811] cuts =  0 [   0]
  --> max chng: dpmx=   6.6088E-01 dtmpmx=   6.7571E-02

== TH FLOW =====================================================================
 Step    146 Time=  6.70000E+00 Dt=  5.00000E-02 [y] snes_conv_reason:   11
  newton =   1 [     153] linear =   129 [     19940] cuts =  0 [   0]
  --> max chng: dpmx=   6.6555E-01 dtmpmx=   6.7153E-02

== TH FLOW =====================================================================
 Step    147 Time=  6.75000E+00 Dt=  5.00000E-02 [y] snes_conv_reason:   11
  newton =   1 [     154] linear =   130 [     20070] cuts =  0 [   0]
  --> max chng: dpmx=   6.6988E-01 dtmpmx=   6.6729E-02

== TH FLOW =====================================================================
 Step    148 Time=  6.80000E+00 Dt=  5.00000E-02 [y] snes_conv_reason:   11
  newton =   1 [     155] linear =   131 [     20201] cuts =  0 [   0]
  --> max chng: dpmx=   6.7429E-01 dtmpmx=   6.6301E-02

== TH FLOW =====================================================================
 Step    149 Time=  6.85000E+00 Dt=  5.00000E-02 [y] snes_conv_reason:   11
  newton =   1 [     156] linear =   133 [     20334] cuts =  0 [   0]
  --> max chng: dpmx=   6.7888E-01 dtmpmx=   6.5910E-02

== TH FLOW =====================================================================
 Step    150 Time=  6.90000E+00 Dt=  5.00000E-02 [y] snes_conv_reason:   11
  newton =   1 [     157] linear =   129 [     20463] cuts =  0 [   0]
  --> max chng: dpmx=   6.8337E-01 dtmpmx=   6.5536E-02

== TH FLOW =====================================================================
 Step    151 Time=  6.95000E+00 Dt=  5.00000E-02 [y] snes_conv_reason:   11
  newton =   1 [     158] linear =   134 [     20597] cuts =  0 [   0]
  --> max chng: dpmx=   6.8783E-01 dtmpmx=   6.5157E-02

== TH FLOW =====================================================================
 Step    152 Time=  7.00000E+00 Dt=  5.00000E-02 [y] snes_conv_reason:   11
  newton =   1 [     159] linear =   133 [     20730] cuts =  0 [   0]
  --> max chng: dpmx=   6.9221E-01 dtmpmx=   6.4773E-02

== TH FLOW =====================================================================
 Step    153 Time=  7.05000E+00 Dt=  5.00000E-02 [y] snes_conv_reason:   11
  newton =   1 [     160] linear =   142 [     20872] cuts =  0 [   0]
  --> max chng: dpmx=   6.9683E-01 dtmpmx=   6.4384E-02

== TH FLOW =====================================================================
 Step    154 Time=  7.10000E+00 Dt=  5.00000E-02 [y] snes_conv_reason:   11
  newton =   1 [     161] linear =   136 [     21008] cuts =  0 [   0]
  --> max chng: dpmx=   7.0138E-01 dtmpmx=   6.3990E-02

== TH FLOW =====================================================================
 Step    155 Time=  7.15000E+00 Dt=  5.00000E-02 [y] snes_conv_reason:   11
  newton =   1 [     162] linear =   133 [     21141] cuts =  0 [   0]
  --> max chng: dpmx=   7.0581E-01 dtmpmx=   6.3610E-02

== TH FLOW =====================================================================
 Step    156 Time=  7.20000E+00 Dt=  5.00000E-02 [y] snes_conv_reason:   11
  newton =   1 [     163] linear =   133 [     21274] cuts =  0 [   0]
  --> max chng: dpmx=   7.1027E-01 dtmpmx=   6.3266E-02

== TH FLOW =====================================================================
 Step    157 Time=  7.25000E+00 Dt=  5.00000E-02 [y] snes_conv_reason:   11
  newton =   1 [     164] linear =   134 [     21408] cuts =  0 [   0]
  --> max chng: dpmx=   7.1489E-01 dtmpmx=   6.2917E-02

== TH FLOW =====================================================================
 Step    158 Time=  7.30000E+00 Dt=  5.00000E-02 [y] snes_conv_reason:   11
  newton =   1 [     165] linear =   133 [     21541] cuts =  0 [   0]
  --> max chng: dpmx=   7.1942E-01 dtmpmx=   6.2562E-02

== TH FLOW =====================================================================
 Step    159 Time=  7.35000E+00 Dt=  5.00000E-02 [y] snes_conv_reason:   11
  newton =   1 [     166] linear =   126 [     21667] cuts =  0 [   0]
  --> max chng: dpmx=   7.2392E-01 dtmpmx=   6.2204E-02

== TH FLOW =====================================================================
 Step    160 Time=  7.40000E+00 Dt=  5.00000E-02 [y] snes_conv_reason:   11
  newton =   1 [     167] linear =   136 [     21803] cuts =  0 [   0]
  --> max chng: dpmx=   7.2852E-01 dtmpmx=   6.1840E-02

== TH FLOW =====================================================================
 Step    161 Time=  7.45000E+00 Dt=  5.00000E-02 [y] snes_conv_reason:   11
  newton =   1 [     168] linear =   128 [     21931] cuts =  0 [   0]
  --> max chng: dpmx=   7.3296E-01 dtmpmx=   6.1472E-02

== TH FLOW =====================================================================
 Step    162 Time=  7.50000E+00 Dt=  5.00000E-02 [y] snes_conv_reason:   11
  newton =   1 [     169] linear =   132 [     22063] cuts =  0 [   0]
  --> max chng: dpmx=   7.3757E-01 dtmpmx=   6.1153E-02

== TH FLOW =====================================================================
 Step    163 Time=  7.55000E+00 Dt=  5.00000E-02 [y] snes_conv_reason:   11
  newton =   1 [     170] linear =   129 [     22192] cuts =  0 [   0]
  --> max chng: dpmx=   7.4230E-01 dtmpmx=   6.0831E-02

== TH FLOW =====================================================================
 Step    164 Time=  7.60000E+00 Dt=  5.00000E-02 [y] snes_conv_reason:   11
  newton =   1 [     171] linear =   132 [     22324] cuts =  0 [   0]
  --> max chng: dpmx=   7.4649E-01 dtmpmx=   6.0504E-02

== TH FLOW =====================================================================
 Step    165 Time=  7.65000E+00 Dt=  5.00000E-02 [y] snes_conv_reason:   11
  newton =   1 [     172] linear =   133 [     22457] cuts =  0 [   0]
  --> max chng: dpmx=   7.5116E-01 dtmpmx=   6.0172E-02

== TH FLOW =====================================================================
 Step    166 Time=  7.70000E+00 Dt=  5.00000E-02 [y] snes_conv_reason:   11
  newton =   1 [     173] linear =   129 [     22586] cuts =  0 [   0]
  --> max chng: dpmx=   7.5595E-01 dtmpmx=   5.9836E-02

== TH FLOW =====================================================================
 Step    167 Time=  7.75000E+00 Dt=  5.00000E-02 [y] snes_conv_reason:   11
  newton =   1 [     174] linear =   133 [     22719] cuts =  0 [   0]
  --> max chng: dpmx=   7.6041E-01 dtmpmx=   5.9495E-02

== TH FLOW =====================================================================
 Step    168 Time=  7.80000E+00 Dt=  5.00000E-02 [y] snes_conv_reason:   11
  newton =   1 [     175] linear =   129 [     22848] cuts =  0 [   0]
  --> max chng: dpmx=   7.6486E-01 dtmpmx=   5.9183E-02

== TH FLOW =====================================================================
 Step    169 Time=  7.85000E+00 Dt=  5.00000E-02 [y] snes_conv_reason:   11
  newton =   1 [     176] linear =   129 [     22977] cuts =  0 [   0]
  --> max chng: dpmx=   7.6941E-01 dtmpmx=   5.8884E-02

== TH FLOW =====================================================================
 Step    170 Time=  7.90000E+00 Dt=  5.00000E-02 [y] snes_conv_reason:   11
  newton =   1 [     177] linear =   129 [     23106] cuts =  0 [   0]
  --> max chng: dpmx=   7.7407E-01 dtmpmx=   5.8581E-02

== TH FLOW =====================================================================
 Step    171 Time=  7.95000E+00 Dt=  5.00000E-02 [y] snes_conv_reason:   11
  newton =   1 [     178] linear =   130 [     23236] cuts =  0 [   0]
  --> max chng: dpmx=   7.7897E-01 dtmpmx=   5.8273E-02

== TH FLOW =====================================================================
 Step    172 Time=  8.00000E+00 Dt=  5.00000E-02 [y] snes_conv_reason:   11
  newton =   1 [     179] linear =   125 [     23361] cuts =  0 [   0]
  --> max chng: dpmx=   7.8331E-01 dtmpmx=   5.7961E-02

== TH FLOW =====================================================================
 Step    173 Time=  8.05000E+00 Dt=  5.00000E-02 [y] snes_conv_reason:   11
  newton =   1 [     180] linear =   130 [     23491] cuts =  0 [   0]
  --> max chng: dpmx=   7.8790E-01 dtmpmx=   5.7645E-02

== TH FLOW =====================================================================
 Step    174 Time=  8.10000E+00 Dt=  5.00000E-02 [y] snes_conv_reason:   11
  newton =   1 [     181] linear =   126 [     23617] cuts =  0 [   0]
  --> max chng: dpmx=   7.9226E-01 dtmpmx=   5.7339E-02

== TH FLOW =====================================================================
 Step    175 Time=  8.15000E+00 Dt=  5.00000E-02 [y] snes_conv_reason:   11
  newton =   1 [     182] linear =   130 [     23747] cuts =  0 [   0]
  --> max chng: dpmx=   7.9735E-01 dtmpmx=   5.7062E-02

== TH FLOW =====================================================================
 Step    176 Time=  8.20000E+00 Dt=  5.00000E-02 [y] snes_conv_reason:   11
  newton =   1 [     183] linear =   127 [     23874] cuts =  0 [   0]
  --> max chng: dpmx=   8.0180E-01 dtmpmx=   5.6781E-02

== TH FLOW =====================================================================
 Step    177 Time=  8.25000E+00 Dt=  5.00000E-02 [y] snes_conv_reason:   11
  newton =   1 [     184] linear =   129 [     24003] cuts =  0 [   0]
  --> max chng: dpmx=   8.0606E-01 dtmpmx=   5.6495E-02

== TH FLOW =====================================================================
 Step    178 Time=  8.30000E+00 Dt=  5.00000E-02 [y] snes_conv_reason:   11
  newton =   1 [     185] linear =   125 [     24128] cuts =  0 [   0]
  --> max chng: dpmx=   8.1085E-01 dtmpmx=   5.6205E-02

== TH FLOW =====================================================================
 Step    179 Time=  8.35000E+00 Dt=  5.00000E-02 [y] snes_conv_reason:   11
  newton =   1 [     186] linear =   131 [     24259] cuts =  0 [   0]
  --> max chng: dpmx=   8.1575E-01 dtmpmx=   5.5911E-02

== TH FLOW =====================================================================
 Step    180 Time=  8.40000E+00 Dt=  5.00000E-02 [y] snes_conv_reason:   11
  newton =   1 [     187] linear =   125 [     24384] cuts =  0 [   0]
  --> max chng: dpmx=   8.2024E-01 dtmpmx=   5.5613E-02

== TH FLOW =====================================================================
 Step    181 Time=  8.45000E+00 Dt=  5.00000E-02 [y] snes_conv_reason:   11
  newton =   1 [     188] linear =   120 [     24504] cuts =  0 [   0]
  --> max chng: dpmx=   8.2479E-01 dtmpmx=   5.5353E-02

== TH FLOW =====================================================================
 Step    182 Time=  8.50000E+00 Dt=  5.00000E-02 [y] snes_conv_reason:   11
  newton =   1 [     189] linear =   131 [     24635] cuts =  0 [   0]
  --> max chng: dpmx=   8.2941E-01 dtmpmx=   5.5091E-02

== TH FLOW =====================================================================
 Step    183 Time=  8.55000E+00 Dt=  5.00000E-02 [y] snes_conv_reason:   11
  newton =   1 [     190] linear =   129 [     24764] cuts =  0 [   0]
  --> max chng: dpmx=   8.3413E-01 dtmpmx=   5.4825E-02

== TH FLOW =====================================================================
 Step    184 Time=  8.60000E+00 Dt=  5.00000E-02 [y] snes_conv_reason:   11
  newton =   1 [     191] linear =   129 [     24893] cuts =  0 [   0]
  --> max chng: dpmx=   8.3884E-01 dtmpmx=   5.4555E-02

== TH FLOW =====================================================================
 Step    185 Time=  8.65000E+00 Dt=  5.00000E-02 [y] snes_conv_reason:   11
  newton =   1 [     192] linear =   126 [     25019] cuts =  0 [   0]
  --> max chng: dpmx=   8.4331E-01 dtmpmx=   5.4281E-02

== TH FLOW =====================================================================
 Step    186 Time=  8.70000E+00 Dt=  5.00000E-02 [y] snes_conv_reason:   11
  newton =   1 [     193] linear =   128 [     25147] cuts =  0 [   0]
  --> max chng: dpmx=   8.4803E-01 dtmpmx=   5.4003E-02

== TH FLOW =====================================================================
 Step    187 Time=  8.75000E+00 Dt=  5.00000E-02 [y] snes_conv_reason:   11
  newton =   1 [     194] linear =   130 [     25277] cuts =  0 [   0]
  --> max chng: dpmx=   8.5269E-01 dtmpmx=   5.3746E-02

== TH FLOW =====================================================================
 Step    188 Time=  8.80000E+00 Dt=  5.00000E-02 [y] snes_conv_reason:   11
  newton =   1 [     195] linear =   125 [     25402] cuts =  0 [   0]
  --> max chng: dpmx=   8.5751E-01 dtmpmx=   5.3502E-02

== TH FLOW =====================================================================
 Step    189 Time=  8.85000E+00 Dt=  5.00000E-02 [y] snes_conv_reason:   11
  newton =   1 [     196] linear =   129 [     25531] cuts =  0 [   0]
  --> max chng: dpmx=   8.6199E-01 dtmpmx=   5.3254E-02

== TH FLOW =====================================================================
 Step    190 Time=  8.90000E+00 Dt=  5.00000E-02 [y] snes_conv_reason:   11
  newton =   1 [     197] linear =   121 [     25652] cuts =  0 [   0]
  --> max chng: dpmx=   8.6677E-01 dtmpmx=   5.3002E-02

== TH FLOW =====================================================================
 Step    191 Time=  8.95000E+00 Dt=  5.00000E-02 [y] snes_conv_reason:   11
  newton =   1 [     198] linear =   130 [     25782] cuts =  0 [   0]
  --> max chng: dpmx=   8.7114E-01 dtmpmx=   5.2746E-02

== TH FLOW =====================================================================
 Step    192 Time=  9.00000E+00 Dt=  5.00000E-02 [y] snes_conv_reason:   11
  newton =   1 [     199] linear =   130 [     25912] cuts =  0 [   0]
  --> max chng: dpmx=   8.7597E-01 dtmpmx=   5.2486E-02

== TH FLOW =====================================================================
 Step    193 Time=  9.05000E+00 Dt=  5.00000E-02 [y] snes_conv_reason:   11
  newton =   1 [     200] linear =   129 [     26041] cuts =  0 [   0]
  --> max chng: dpmx=   8.8059E-01 dtmpmx=   5.2232E-02

== TH FLOW =====================================================================
 Step    194 Time=  9.10000E+00 Dt=  5.00000E-02 [y] snes_conv_reason:   11
  newton =   1 [     201] linear =   131 [     26172] cuts =  0 [   0]
  --> max chng: dpmx=   8.8561E-01 dtmpmx=   5.2004E-02

== TH FLOW =====================================================================
 Step    195 Time=  9.15000E+00 Dt=  5.00000E-02 [y] snes_conv_reason:   11
  newton =   1 [     202] linear =   130 [     26302] cuts =  0 [   0]
  --> max chng: dpmx=   8.9004E-01 dtmpmx=   5.1772E-02

== TH FLOW =====================================================================
 Step    196 Time=  9.20000E+00 Dt=  5.00000E-02 [y] snes_conv_reason:   11
  newton =   1 [     203] linear =   127 [     26429] cuts =  0 [   0]
  --> max chng: dpmx=   8.9458E-01 dtmpmx=   5.1537E-02

== TH FLOW =====================================================================
 Step    197 Time=  9.25000E+00 Dt=  5.00000E-02 [y] snes_conv_reason:   11
  newton =   1 [     204] linear =   126 [     26555] cuts =  0 [   0]
  --> max chng: dpmx=   8.9960E-01 dtmpmx=   5.1297E-02

== TH FLOW =====================================================================
 Step    198 Time=  9.30000E+00 Dt=  5.00000E-02 [y] snes_conv_reason:   11
  newton =   1 [     205] linear =   129 [     26684] cuts =  0 [   0]
  --> max chng: dpmx=   9.0414E-01 dtmpmx=   5.1054E-02

== TH FLOW =====================================================================
 Step    199 Time=  9.35000E+00 Dt=  5.00000E-02 [y] snes_conv_reason:   11
  newton =   1 [     206] linear =   133 [     26817] cuts =  0 [   0]
  --> max chng: dpmx=   9.0881E-01 dtmpmx=   5.0808E-02

== TH FLOW =====================================================================
 Step    200 Time=  9.40000E+00 Dt=  5.00000E-02 [y] snes_conv_reason:   11
  newton =   1 [     207] linear =   134 [     26951] cuts =  0 [   0]
  --> max chng: dpmx=   9.1345E-01 dtmpmx=   5.0590E-02

== TH FLOW =====================================================================
 Step    201 Time=  9.45000E+00 Dt=  5.00000E-02 [y] snes_conv_reason:   11
  newton =   1 [     208] linear =   134 [     27085] cuts =  0 [   0]
  --> max chng: dpmx=   9.1817E-01 dtmpmx=   5.0373E-02

== TH FLOW =====================================================================
 Step    202 Time=  9.50000E+00 Dt=  5.00000E-02 [y] snes_conv_reason:   11
  newton =   1 [     209] linear =   129 [     27214] cuts =  0 [   0]
  --> max chng: dpmx=   9.2289E-01 dtmpmx=   5.0152E-02

== TH FLOW =====================================================================
 Step    203 Time=  9.55000E+00 Dt=  5.00000E-02 [y] snes_conv_reason:   11
  newton =   1 [     210] linear =   129 [     27343] cuts =  0 [   0]
  --> max chng: dpmx=   9.2752E-01 dtmpmx=   4.9928E-02

== TH FLOW =====================================================================
 Step    204 Time=  9.60000E+00 Dt=  5.00000E-02 [y] snes_conv_reason:   11
  newton =   1 [     211] linear =   137 [     27480] cuts =  0 [   0]
  --> max chng: dpmx=   9.3249E-01 dtmpmx=   4.9700E-02

== TH FLOW =====================================================================
 Step    205 Time=  9.65000E+00 Dt=  5.00000E-02 [y] snes_conv_reason:   11
  newton =   1 [     212] linear =   127 [     27607] cuts =  0 [   0]
  --> max chng: dpmx=   9.3695E-01 dtmpmx=   4.9470E-02

== TH FLOW =====================================================================
 Step    206 Time=  9.70000E+00 Dt=  5.00000E-02 [y] snes_conv_reason:   11
  newton =   1 [     213] linear =   132 [     27739] cuts =  0 [   0]
  --> max chng: dpmx=   9.4174E-01 dtmpmx=   4.9253E-02

== TH FLOW =====================================================================
 Step    207 Time=  9.75000E+00 Dt=  5.00000E-02 [y] snes_conv_reason:   11
  newton =   1 [     214] linear =   134 [     27873] cuts =  0 [   0]
  --> max chng: dpmx=   9.4650E-01 dtmpmx=   4.9049E-02

== TH FLOW =====================================================================
 Step    208 Time=  9.80000E+00 Dt=  5.00000E-02 [y] snes_conv_reason:   11
  newton =   1 [     215] linear =   132 [     28005] cuts =  0 [   0]
  --> max chng: dpmx=   9.5117E-01 dtmpmx=   4.8842E-02

== TH FLOW =====================================================================
 Step    209 Time=  9.85000E+00 Dt=  5.00000E-02 [y] snes_conv_reason:   11
  newton =   1 [     216] linear =   133 [     28138] cuts =  0 [   0]
  --> max chng: dpmx=   9.5589E-01 dtmpmx=   4.8632E-02

== TH FLOW =====================================================================
 Step    210 Time=  9.90000E+00 Dt=  5.00000E-02 [y] snes_conv_reason:   11
  newton =   1 [     217] linear =   127 [     28265] cuts =  0 [   0]
  --> max chng: dpmx=   9.6049E-01 dtmpmx=   4.8418E-02

== TH FLOW =====================================================================
 Step    211 Time=  9.95000E+00 Dt=  5.00000E-02 [y] snes_conv_reason:   11
  newton =   1 [     218] linear =   127 [     28392] cuts =  0 [   0]
  --> max chng: dpmx=   9.6544E-01 dtmpmx=   4.8201E-02

== TH FLOW =====================================================================
 Step    212 Time=  1.00000E+01 Dt=  5.00000E-02 [y] snes_conv_reason:   11
  newton =   1 [     219] linear =   126 [     28518] cuts =  0 [   0]
  --> max chng: dpmx=   9.7016E-01 dtmpmx=   4.7986E-02

== TH FLOW =====================================================================
 Step    213 Time=  1.00500E+01 Dt=  5.00000E-02 [y] snes_conv_reason:   11
  newton =   1 [     220] linear =   131 [     28649] cuts =  0 [   0]
  --> max chng: dpmx=   9.7473E-01 dtmpmx=   4.7794E-02

== TH FLOW =====================================================================
 Step    214 Time=  1.01000E+01 Dt=  5.00000E-02 [y] snes_conv_reason:   11
  newton =   1 [     221] linear =   125 [     28774] cuts =  0 [   0]
  --> max chng: dpmx=   9.7924E-01 dtmpmx=   4.7600E-02

== TH FLOW =====================================================================
 Step    215 Time=  1.01500E+01 Dt=  5.00000E-02 [y] snes_conv_reason:   11
  newton =   1 [     222] linear =   129 [     28903] cuts =  0 [   0]
  --> max chng: dpmx=   9.8426E-01 dtmpmx=   4.7402E-02

== TH FLOW =====================================================================
 Step    216 Time=  1.02000E+01 Dt=  5.00000E-02 [y] snes_conv_reason:   11
  newton =   1 [     223] linear =   120 [     29023] cuts =  0 [   0]
  --> max chng: dpmx=   9.8900E-01 dtmpmx=   4.7201E-02

== TH FLOW =====================================================================
 Step    217 Time=  1.02500E+01 Dt=  5.00000E-02 [y] snes_conv_reason:   11
  newton =   1 [     224] linear =   123 [     29146] cuts =  0 [   0]
  --> max chng: dpmx=   9.9360E-01 dtmpmx=   4.6997E-02

== TH FLOW =====================================================================
 Step    218 Time=  1.03000E+01 Dt=  5.00000E-02 [y] snes_conv_reason:   11
  newton =   1 [     225] linear =   125 [     29271] cuts =  0 [   0]
  --> max chng: dpmx=   9.9819E-01 dtmpmx=   4.6790E-02

== TH FLOW =====================================================================
 Step    219 Time=  1.03500E+01 Dt=  5.00000E-02 [y] snes_conv_reason:    3
  newton =   1 [     226] linear =   121 [     29392] cuts =  0 [   0]
  --> max chng: dpmx=   1.0028E+00 dtmpmx=   4.6603E-02

== TH FLOW =====================================================================
 Step    220 Time=  1.04000E+01 Dt=  5.00000E-02 [y] snes_conv_reason:    3
  newton =   1 [     227] linear =   130 [     29522] cuts =  0 [   0]
  --> max chng: dpmx=   1.0079E+00 dtmpmx=   4.6420E-02

== TH FLOW =====================================================================
 Step    221 Time=  1.04500E+01 Dt=  5.00000E-02 [y] snes_conv_reason:    3
  newton =   1 [     228] linear =   131 [     29653] cuts =  0 [   0]
  --> max chng: dpmx=   1.0121E+00 dtmpmx=   4.6234E-02

== TH FLOW =====================================================================
 Step    222 Time=  1.05000E+01 Dt=  5.00000E-02 [y] snes_conv_reason:    3
  newton =   1 [     229] linear =   125 [     29778] cuts =  0 [   0]
  --> max chng: dpmx=   1.0171E+00 dtmpmx=   4.6045E-02

== TH FLOW =====================================================================
 Step    223 Time=  1.05500E+01 Dt=  5.00000E-02 [y] snes_conv_reason:    3
  newton =   1 [     230] linear =   125 [     29903] cuts =  0 [   0]
  --> max chng: dpmx=   1.0213E+00 dtmpmx=   4.5853E-02

== TH FLOW =====================================================================
 Step    224 Time=  1.06000E+01 Dt=  5.00000E-02 [y] snes_conv_reason:    3
  newton =   1 [     231] linear =   125 [     30028] cuts =  0 [   0]
  --> max chng: dpmx=   1.0263E+00 dtmpmx=   4.5658E-02

== TH FLOW =====================================================================
 Step    225 Time=  1.06500E+01 Dt=  5.00000E-02 [y] snes_conv_reason:    3
  newton =   1 [     232] linear =   120 [     30148] cuts =  0 [   0]
  --> max chng: dpmx=   1.0309E+00 dtmpmx=   4.5471E-02

== TH FLOW =====================================================================
 Step    226 Time=  1.07000E+01 Dt=  5.00000E-02 [y] snes_conv_reason:    3
  newton =   1 [     233] linear =   122 [     30270] cuts =  0 [   0]
  --> max chng: dpmx=   1.0351E+00 dtmpmx=   4.5299E-02

== TH FLOW =====================================================================
 Step    227 Time=  1.07500E+01 Dt=  5.00000E-02 [y] snes_conv_reason:    3
  newton =   1 [     234] linear =   124 [     30394] cuts =  0 [   0]
  --> max chng: dpmx=   1.0398E+00 dtmpmx=   4.5124E-02

== TH FLOW =====================================================================
 Step    228 Time=  1.08000E+01 Dt=  5.00000E-02 [y] snes_conv_reason:    3
  newton =   1 [     235] linear =   130 [     30524] cuts =  0 [   0]
  --> max chng: dpmx=   1.0444E+00 dtmpmx=   4.4945E-02

== TH FLOW =====================================================================
 Step    229 Time=  1.08500E+01 Dt=  5.00000E-02 [y] snes_conv_reason:    3
  newton =   1 [     236] linear =   128 [     30652] cuts =  0 [   0]
  --> max chng: dpmx=   1.0489E+00 dtmpmx=   4.4764E-02

== TH FLOW =====================================================================
 Step    230 Time=  1.09000E+01 Dt=  5.00000E-02 [y] snes_conv_reason:    3
  newton =   1 [     237] linear =   130 [     30782] cuts =  0 [   0]
  --> max chng: dpmx=   1.0530E+00 dtmpmx=   4.4580E-02

== TH FLOW =====================================================================
 Step    231 Time=  1.09500E+01 Dt=  5.00000E-02 [y] snes_conv_reason:    3
  newton =   1 [     238] linear =   129 [     30911] cuts =  0 [   0]
  --> max chng: dpmx=   1.0573E+00 dtmpmx=   4.4394E-02

== TH FLOW =====================================================================
 Step    232 Time=  1.10000E+01 Dt=  5.00000E-02 [y] snes_conv_reason:    3
  newton =   1 [     239] linear =   125 [     31036] cuts =  0 [   0]
  --> max chng: dpmx=   1.0619E+00 dtmpmx=   4.4231E-02

== TH FLOW =====================================================================
 Step    233 Time=  1.10500E+01 Dt=  5.00000E-02 [y] snes_conv_reason:    3
  newton =   1 [     240] linear =   125 [     31161] cuts =  0 [   0]
  --> max chng: dpmx=   1.0660E+00 dtmpmx=   4.4066E-02

== TH FLOW =====================================================================
 Step    234 Time=  1.11000E+01 Dt=  5.00000E-02 [y] snes_conv_reason:    3
  newton =   1 [     241] linear =   127 [     31288] cuts =  0 [   0]
  --> max chng: dpmx=   1.0699E+00 dtmpmx=   4.3897E-02

== TH FLOW =====================================================================
 Step    235 Time=  1.11500E+01 Dt=  5.00000E-02 [y] snes_conv_reason:    3
  newton =   1 [     242] linear =   123 [     31411] cuts =  0 [   0]
  --> max chng: dpmx=   1.0743E+00 dtmpmx=   4.3726E-02

== TH FLOW =====================================================================
 Step    236 Time=  1.12000E+01 Dt=  5.00000E-02 [y] snes_conv_reason:    3
  newton =   1 [     243] linear =   125 [     31536] cuts =  0 [   0]
  --> max chng: dpmx=   1.0779E+00 dtmpmx=   4.3553E-02

== TH FLOW =====================================================================
 Step    237 Time=  1.12500E+01 Dt=  5.00000E-02 [y] snes_conv_reason:    3
  newton =   1 [     244] linear =   128 [     31664] cuts =  0 [   0]
  --> max chng: dpmx=   1.0820E+00 dtmpmx=   4.3376E-02

== TH FLOW =====================================================================
 Step    238 Time=  1.13000E+01 Dt=  5.00000E-02 [y] snes_conv_reason:    3
  newton =   1 [     245] linear =   128 [     31792] cuts =  0 [   0]
  --> max chng: dpmx=   1.0854E+00 dtmpmx=   4.3213E-02

== TH FLOW =====================================================================
 Step    239 Time=  1.13500E+01 Dt=  5.00000E-02 [y] snes_conv_reason:    3
  newton =   1 [     246] linear =   125 [     31917] cuts =  0 [   0]
  --> max chng: dpmx=   1.0892E+00 dtmpmx=   4.3057E-02

== TH FLOW =====================================================================
 Step    240 Time=  1.14000E+01 Dt=  5.00000E-02 [y] snes_conv_reason:    3
  newton =   1 [     247] linear =   128 [     32045] cuts =  0 [   0]
  --> max chng: dpmx=   1.0923E+00 dtmpmx=   4.2898E-02

== TH FLOW =====================================================================
 Step    241 Time=  1.14500E+01 Dt=  5.00000E-02 [y] snes_conv_reason:    3
  newton =   1 [     248] linear =   119 [     32164] cuts =  0 [   0]
  --> max chng: dpmx=   1.0956E+00 dtmpmx=   4.2736E-02

== TH FLOW =====================================================================
 Step    242 Time=  1.15000E+01 Dt=  5.00000E-02 [y] snes_conv_reason:    3
  newton =   1 [     249] linear =   123 [     32287] cuts =  0 [   0]
  --> max chng: dpmx=   1.0987E+00 dtmpmx=   4.2572E-02

== TH FLOW =====================================================================
 Step    243 Time=  1.15500E+01 Dt=  5.00000E-02 [y] snes_conv_reason:    3
  newton =   1 [     250] linear =   130 [     32417] cuts =  0 [   0]
  --> max chng: dpmx=   1.1015E+00 dtmpmx=   4.2405E-02

== TH FLOW =====================================================================
 Step    244 Time=  1.16000E+01 Dt=  5.00000E-02 [y] snes_conv_reason:    3
  newton =   1 [     251] linear =   121 [     32538] cuts =  0 [   0]
  --> max chng: dpmx=   1.1044E+00 dtmpmx=   4.2241E-02

== TH FLOW =====================================================================
 Step    245 Time=  1.16500E+01 Dt=  5.00000E-02 [y] snes_conv_reason:    3
  newton =   1 [     252] linear =   121 [     32659] cuts =  0 [   0]
  --> max chng: dpmx=   1.1064E+00 dtmpmx=   4.2093E-02

== TH FLOW =====================================================================
 Step    246 Time=  1.17000E+01 Dt=  5.00000E-02 [y] snes_conv_reason:    3
  newton =   1 [     253] linear =   129 [     32788] cuts =  0 [   0]
  --> max chng: dpmx=   1.1086E+00 dtmpmx=   4.1943E-02

== TH FLOW =====================================================================
 Step    247 Time=  1.17500E+01 Dt=  5.00000E-02 [y] snes_conv_reason:    3
  newton =   1 [     254] linear =   121 [     32909] cuts =  0 [   0]
  --> max chng: dpmx=   1.1103E+00 dtmpmx=   4.1790E-02

== TH FLOW =====================================================================
 Step    248 Time=  1.18000E+01 Dt=  5.00000E-02 [y] snes_conv_reason:    3
  newton =   1 [     255] linear =   124 [     33033] cuts =  0 [   0]
  --> max chng: dpmx=   1.1121E+00 dtmpmx=   4.1635E-02

== TH FLOW =====================================================================
 Step    249 Time=  1.18500E+01 Dt=  5.00000E-02 [y] snes_conv_reason:    3
  newton =   1 [     256] linear =   124 [     33157] cuts =  0 [   0]
  --> max chng: dpmx=   1.1128E+00 dtmpmx=   4.1477E-02

== TH FLOW =====================================================================
 Step    250 Time=  1.19000E+01 Dt=  5.00000E-02 [y] snes_conv_reason:    3
  newton =   1 [     257] linear =   124 [     33281] cuts =  0 [   0]
  --> max chng: dpmx=   1.1139E+00 dtmpmx=   4.1316E-02

== TH FLOW =====================================================================
 Step    251 Time=  1.19500E+01 Dt=  5.00000E-02 [y] snes_conv_reason:    3
  newton =   1 [     258] linear =   122 [     33403] cuts =  0 [   0]
  --> max chng: dpmx=   1.1142E+00 dtmpmx=   4.1172E-02

== TH FLOW =====================================================================
 Step    252 Time=  1.20000E+01 Dt=  5.00000E-02 [y] snes_conv_reason:    3
  newton =   1 [     259] linear =   126 [     33529] cuts =  0 [   0]
  --> max chng: dpmx=   1.1145E+00 dtmpmx=   4.1030E-02

== TH FLOW =====================================================================
 Step    253 Time=  1.20500E+01 Dt=  5.00000E-02 [y] snes_conv_reason:    3
  newton =   1 [     260] linear =   125 [     33654] cuts =  0 [   0]
  --> max chng: dpmx=   1.1136E+00 dtmpmx=   4.0885E-02

== TH FLOW =====================================================================
 Step    254 Time=  1.21000E+01 Dt=  5.00000E-02 [y] snes_conv_reason:    3
  newton =   1 [     261] linear =   124 [     33778] cuts =  0 [   0]
  --> max chng: dpmx=   1.1129E+00 dtmpmx=   4.0738E-02

== TH FLOW =====================================================================
 Step    255 Time=  1.21500E+01 Dt=  5.00000E-02 [y] snes_conv_reason:    3
  newton =   1 [     262] linear =   126 [     33904] cuts =  0 [   0]
  --> max chng: dpmx=   1.1114E+00 dtmpmx=   4.0588E-02

== TH FLOW =====================================================================
 Step    256 Time=  1.22000E+01 Dt=  5.00000E-02 [y] snes_conv_reason:    3
  newton =   1 [     263] linear =   126 [     34030] cuts =  0 [   0]
  --> max chng: dpmx=   1.1097E+00 dtmpmx=   4.0436E-02

== TH FLOW =====================================================================
 Step    257 Time=  1.22500E+01 Dt=  5.00000E-02 [y] snes_conv_reason:    3
  newton =   1 [     264] linear =   128 [     34158] cuts =  0 [   0]
  --> max chng: dpmx=   1.1072E+00 dtmpmx=   4.0291E-02

[...]
 Step    493 Time=  2.40500E+01 Dt=  5.00000E-02 [y] snes_conv_reason:   11
  newton =   1 [     500] linear =   120 [     63590] cuts =  0 [   0]
  --> max chng: dpmx=   4.2726E-03 dtmpmx=   9.5688E-05

== TH FLOW =====================================================================
 Step    494 Time=  2.41000E+01 Dt=  5.00000E-02 [y] snes_conv_reason:   11
  newton =   1 [     501] linear =   120 [     63710] cuts =  0 [   0]
  --> max chng: dpmx=   4.2206E-03 dtmpmx=   9.5623E-05

== TH FLOW =====================================================================
 Step    495 Time=  2.41500E+01 Dt=  5.00000E-02 [y] snes_conv_reason:   11
  newton =   1 [     502] linear =   119 [     63829] cuts =  0 [   0]
  --> max chng: dpmx=   4.1702E-03 dtmpmx=   9.5554E-05

== TH FLOW =====================================================================
 Step    496 Time=  2.42000E+01 Dt=  5.00000E-02 [y] snes_conv_reason:   11
  newton =   1 [     503] linear =   114 [     63943] cuts =  0 [   0]
  --> max chng: dpmx=   4.1166E-03 dtmpmx=   9.5469E-05

== TH FLOW =====================================================================
 Step    497 Time=  2.42500E+01 Dt=  5.00000E-02 [y] snes_conv_reason:   11
  newton =   1 [     504] linear =   113 [     64056] cuts =  0 [   0]
  --> max chng: dpmx=   4.0637E-03 dtmpmx=   9.5373E-05

== TH FLOW =====================================================================
 Step    498 Time=  2.43000E+01 Dt=  5.00000E-02 [y] snes_conv_reason:   11
  newton =   1 [     505] linear =   121 [     64177] cuts =  0 [   0]
  --> max chng: dpmx=   4.0119E-03 dtmpmx=   9.5272E-05

== TH FLOW =====================================================================
 Step    499 Time=  2.43500E+01 Dt=  5.00000E-02 [y] snes_conv_reason:   11
  newton =   1 [     506] linear =   125 [     64302] cuts =  0 [   0]
  --> max chng: dpmx=   3.9584E-03 dtmpmx=   9.5155E-05

== TH FLOW =====================================================================
 Step    500 Time=  2.44000E+01 Dt=  5.00000E-02 [y] snes_conv_reason:   11
  newton =   1 [     507] linear =   126 [     64428] cuts =  0 [   0]
  --> max chng: dpmx=   3.9041E-03 dtmpmx=   9.5019E-05

== TH FLOW =====================================================================
 Step    501 Time=  2.44500E+01 Dt=  5.00000E-02 [y] snes_conv_reason:   11
  newton =   1 [     508] linear =   124 [     64552] cuts =  0 [   0]
  --> max chng: dpmx=   3.8503E-03 dtmpmx=   9.4865E-05

== TH FLOW =====================================================================
 Step    502 Time=  2.45000E+01 Dt=  5.00000E-02 [y] snes_conv_reason:   11
  newton =   1 [     509] linear =   115 [     64667] cuts =  0 [   0]
  --> max chng: dpmx=   3.7957E-03 dtmpmx=   9.4691E-05

== TH FLOW =====================================================================
 Step    503 Time=  2.45500E+01 Dt=  5.00000E-02 [y] snes_conv_reason:   11
  newton =   1 [     510] linear =   118 [     64785] cuts =  0 [   0]
  --> max chng: dpmx=   3.7414E-03 dtmpmx=   9.4498E-05

== TH FLOW =====================================================================
 Step    504 Time=  2.46000E+01 Dt=  5.00000E-02 [y] snes_conv_reason:   11
  newton =   1 [     511] linear =   119 [     64904] cuts =  0 [   0]
  --> max chng: dpmx=   3.6862E-03 dtmpmx=   9.4284E-05

== TH FLOW =====================================================================
 Step    505 Time=  2.46500E+01 Dt=  5.00000E-02 [y] snes_conv_reason:   11
  newton =   1 [     512] linear =   119 [     65023] cuts =  0 [   0]
  --> max chng: dpmx=   3.6309E-03 dtmpmx=   9.4049E-05

== TH FLOW =====================================================================
 Step    506 Time=  2.47000E+01 Dt=  5.00000E-02 [y] snes_conv_reason:   11
  newton =   1 [     513] linear =   117 [     65140] cuts =  0 [   0]
  --> max chng: dpmx=   3.5756E-03 dtmpmx=   9.3792E-05

== TH FLOW =====================================================================
 Step    507 Time=  2.47500E+01 Dt=  5.00000E-02 [y] snes_conv_reason:   11
  newton =   1 [     514] linear =   124 [     65264] cuts =  0 [   0]
  --> max chng: dpmx=   3.5208E-03 dtmpmx=   9.3512E-05

== TH FLOW =====================================================================
 Step    508 Time=  2.48000E+01 Dt=  5.00000E-02 [y] snes_conv_reason:   11
  newton =   1 [     515] linear =   124 [     65388] cuts =  0 [   0]
  --> max chng: dpmx=   3.4643E-03 dtmpmx=   9.3210E-05

== TH FLOW =====================================================================
 Step    509 Time=  2.48500E+01 Dt=  5.00000E-02 [y] snes_conv_reason:   11
  newton =   1 [     516] linear =   128 [     65516] cuts =  0 [   0]
  --> max chng: dpmx=   3.4090E-03 dtmpmx=   9.2884E-05

== TH FLOW =====================================================================
 Step    510 Time=  2.49000E+01 Dt=  5.00000E-02 [y] snes_conv_reason:   11
  newton =   1 [     517] linear =   122 [     65638] cuts =  0 [   0]
  --> max chng: dpmx=   3.3521E-03 dtmpmx=   9.2534E-05

== TH FLOW =====================================================================
 Step    511 Time=  2.49500E+01 Dt=  5.00000E-02 [y] snes_conv_reason:   11
  newton =   1 [     518] linear =   119 [     65757] cuts =  0 [   0]
  --> max chng: dpmx=   3.2966E-03 dtmpmx=   9.2160E-05

== TH FLOW =====================================================================
 Step    512 Time=  2.50000E+01 Dt=  5.00000E-02 [y] snes_conv_reason:   11
  newton =   1 [     519] linear =   115 [     65872] cuts =  0 [   0]
  --> max chng: dpmx=   3.2396E-03 dtmpmx=   9.1760E-05

== TH FLOW =====================================================================
 Step    513 Time=  2.50500E+01 Dt=  5.00000E-02 [y] snes_conv_reason:   11
  newton =   1 [     520] linear =   113 [     65985] cuts =  0 [   0]
  --> max chng: dpmx=   3.1832E-03 dtmpmx=   9.1335E-05

== TH FLOW =====================================================================
 Step    514 Time=  2.51000E+01 Dt=  5.00000E-02 [y] snes_conv_reason:   11
  newton =   1 [     521] linear =   124 [     66109] cuts =  0 [   0]
  --> max chng: dpmx=   3.1264E-03 dtmpmx=   9.0883E-05

== TH FLOW =====================================================================
 Step    515 Time=  2.51500E+01 Dt=  5.00000E-02 [y] snes_conv_reason:   11
  newton =   1 [     522] linear =   124 [     66233] cuts =  0 [   0]
  --> max chng: dpmx=   3.0709E-03 dtmpmx=   9.0405E-05

== TH FLOW =====================================================================
 Step    516 Time=  2.52000E+01 Dt=  5.00000E-02 [y] snes_conv_reason:   11
  newton =   1 [     523] linear =   124 [     66357] cuts =  0 [   0]
  --> max chng: dpmx=   3.0133E-03 dtmpmx=   8.9901E-05

== TH FLOW =====================================================================
 Step    517 Time=  2.52500E+01 Dt=  5.00000E-02 [y] snes_conv_reason:   11
  newton =   1 [     524] linear =   124 [     66481] cuts =  0 [   0]
  --> max chng: dpmx=   2.9568E-03 dtmpmx=   8.9369E-05

== TH FLOW =====================================================================
 Step    518 Time=  2.53000E+01 Dt=  5.00000E-02 [y] snes_conv_reason:   11
  newton =   1 [     525] linear =   124 [     66605] cuts =  0 [   0]
  --> max chng: dpmx=   2.9003E-03 dtmpmx=   8.8810E-05

== TH FLOW =====================================================================
 Step    519 Time=  2.53500E+01 Dt=  5.00000E-02 [y] snes_conv_reason:   11
  newton =   1 [     526] linear =   124 [     66729] cuts =  0 [   0]
  --> max chng: dpmx=   2.8443E-03 dtmpmx=   8.8224E-05

== TH FLOW =====================================================================
 Step    520 Time=  2.54000E+01 Dt=  5.00000E-02 [y] snes_conv_reason:   11
  newton =   1 [     527] linear =   123 [     66852] cuts =  0 [   0]
  --> max chng: dpmx=   2.7874E-03 dtmpmx=   8.7609E-05

== TH FLOW =====================================================================
 Step    521 Time=  2.54500E+01 Dt=  5.00000E-02 [y] snes_conv_reason:   11
  newton =   1 [     528] linear =   122 [     66974] cuts =  0 [   0]
  --> max chng: dpmx=   2.7309E-03 dtmpmx=   8.6967E-05

== TH FLOW =====================================================================
 Step    522 Time=  2.55000E+01 Dt=  5.00000E-02 [y] snes_conv_reason:   11
  newton =   1 [     529] linear =   122 [     67096] cuts =  0 [   0]
  --> max chng: dpmx=   2.6744E-03 dtmpmx=   8.6297E-05

== TH FLOW =====================================================================
 Step    523 Time=  2.55500E+01 Dt=  5.00000E-02 [y] snes_conv_reason:   11
  newton =   1 [     530] linear =   115 [     67211] cuts =  0 [   0]
  --> max chng: dpmx=   2.6191E-03 dtmpmx=   8.5599E-05

== TH FLOW =====================================================================
 Step    524 Time=  2.56000E+01 Dt=  5.00000E-02 [y] snes_conv_reason:   11
  newton =   1 [     531] linear =   127 [     67338] cuts =  0 [   0]
  --> max chng: dpmx=   2.5623E-03 dtmpmx=   8.4872E-05

== TH FLOW =====================================================================
 Step    525 Time=  2.56500E+01 Dt=  5.00000E-02 [y] snes_conv_reason:   11
  newton =   1 [     532] linear =   127 [     67465] cuts =  0 [   0]
  --> max chng: dpmx=   2.5070E-03 dtmpmx=   8.4118E-05

== TH FLOW =====================================================================
 Step    526 Time=  2.57000E+01 Dt=  5.00000E-02 [y] snes_conv_reason:   11
  newton =   1 [     533] linear =   120 [     67585] cuts =  0 [   0]
  --> max chng: dpmx=   2.4515E-03 dtmpmx=   8.3336E-05

== TH FLOW =====================================================================
 Step    527 Time=  2.57500E+01 Dt=  5.00000E-02 [y] snes_conv_reason:   11
  newton =   1 [     534] linear =   125 [     67710] cuts =  0 [   0]
  --> max chng: dpmx=   2.3966E-03 dtmpmx=   8.2527E-05

== TH FLOW =====================================================================
 Step    528 Time=  2.58000E+01 Dt=  5.00000E-02 [y] snes_conv_reason:   11
  newton =   1 [     535] linear =   126 [     67836] cuts =  0 [   0]
  --> max chng: dpmx=   2.3415E-03 dtmpmx=   8.1690E-05

== TH FLOW =====================================================================
 Step    529 Time=  2.58500E+01 Dt=  5.00000E-02 [y] snes_conv_reason:   11
  newton =   1 [     536] linear =   126 [     67962] cuts =  0 [   0]
  --> max chng: dpmx=   2.2865E-03 dtmpmx=   8.0827E-05

== TH FLOW =====================================================================
 Step    530 Time=  2.59000E+01 Dt=  5.00000E-02 [y] snes_conv_reason:   11
  newton =   1 [     537] linear =   124 [     68086] cuts =  0 [   0]
  --> max chng: dpmx=   2.2329E-03 dtmpmx=   7.9936E-05

== TH FLOW =====================================================================
 Step    531 Time=  2.59500E+01 Dt=  5.00000E-02 [y] snes_conv_reason:   11
  newton =   1 [     538] linear =   124 [     68210] cuts =  0 [   0]
  --> max chng: dpmx=   2.1777E-03 dtmpmx=   7.9020E-05

== TH FLOW =====================================================================
 Step    532 Time=  2.60000E+01 Dt=  5.00000E-02 [y] snes_conv_reason:   11
  newton =   1 [     539] linear =   129 [     68339] cuts =  0 [   0]
  --> max chng: dpmx=   2.1253E-03 dtmpmx=   7.8078E-05

== TH FLOW =====================================================================
 Step    533 Time=  2.60500E+01 Dt=  5.00000E-02 [y] snes_conv_reason:   11
  newton =   1 [     540] linear =   129 [     68468] cuts =  0 [   0]
  --> max chng: dpmx=   2.0714E-03 dtmpmx=   7.7111E-05

== TH FLOW =====================================================================
 Step    534 Time=  2.61000E+01 Dt=  5.00000E-02 [y] snes_conv_reason:   11
  newton =   1 [     541] linear =   129 [     68597] cuts =  0 [   0]
  --> max chng: dpmx=   2.0188E-03 dtmpmx=   7.6119E-05

== TH FLOW =====================================================================
 Step    535 Time=  2.61500E+01 Dt=  5.00000E-02 [y] snes_conv_reason:   11
  newton =   1 [     542] linear =   129 [     68726] cuts =  0 [   0]
  --> max chng: dpmx=   1.9664E-03 dtmpmx=   7.5103E-05

== TH FLOW =====================================================================
 Step    536 Time=  2.62000E+01 Dt=  5.00000E-02 [y] snes_conv_reason:   11
  newton =   1 [     543] linear =   128 [     68854] cuts =  0 [   0]
  --> max chng: dpmx=   1.9147E-03 dtmpmx=   7.4065E-05

== TH FLOW =====================================================================
 Step    537 Time=  2.62500E+01 Dt=  5.00000E-02 [y] snes_conv_reason:   11
  newton =   1 [     544] linear =   128 [     68982] cuts =  0 [   0]
  --> max chng: dpmx=   1.8634E-03 dtmpmx=   7.3004E-05

== TH FLOW =====================================================================
 Step    538 Time=  2.63000E+01 Dt=  5.00000E-02 [y] snes_conv_reason:   11
  newton =   1 [     545] linear =   127 [     69109] cuts =  0 [   0]
  --> max chng: dpmx=   1.8124E-03 dtmpmx=   7.1921E-05

== TH FLOW =====================================================================
 Step    539 Time=  2.63500E+01 Dt=  5.00000E-02 [y] snes_conv_reason:   11
  newton =   1 [     546] linear =   128 [     69237] cuts =  0 [   0]
  --> max chng: dpmx=   1.7623E-03 dtmpmx=   7.0818E-05

== TH FLOW =====================================================================
 Step    540 Time=  2.64000E+01 Dt=  5.00000E-02 [y] snes_conv_reason:   11
  newton =   1 [     547] linear =   122 [     69359] cuts =  0 [   0]
  --> max chng: dpmx=   1.7126E-03 dtmpmx=   6.9696E-05

== TH FLOW =====================================================================
 Step    541 Time=  2.64500E+01 Dt=  5.00000E-02 [y] snes_conv_reason:   11
  newton =   1 [     548] linear =   128 [     69487] cuts =  0 [   0]
  --> max chng: dpmx=   1.6634E-03 dtmpmx=   6.8554E-05

== TH FLOW =====================================================================
 Step    542 Time=  2.65000E+01 Dt=  5.00000E-02 [y] snes_conv_reason:   11
  newton =   1 [     549] linear =   133 [     69620] cuts =  0 [   0]
  --> max chng: dpmx=   1.6151E-03 dtmpmx=   6.7395E-05

== TH FLOW =====================================================================
 Step    543 Time=  2.65500E+01 Dt=  5.00000E-02 [y] snes_conv_reason:   11
  newton =   1 [     550] linear =   131 [     69751] cuts =  0 [   0]
  --> max chng: dpmx=   1.5671E-03 dtmpmx=   6.6220E-05

== TH FLOW =====================================================================
 Step    544 Time=  2.66000E+01 Dt=  5.00000E-02 [y] snes_conv_reason:   11
  newton =   1 [     551] linear =   133 [     69884] cuts =  0 [   0]
  --> max chng: dpmx=   1.5200E-03 dtmpmx=   6.5028E-05

== TH FLOW =====================================================================
 Step    545 Time=  2.66500E+01 Dt=  5.00000E-02 [y] snes_conv_reason:   11
  newton =   1 [     552] linear =   130 [     70014] cuts =  0 [   0]
  --> max chng: dpmx=   1.4732E-03 dtmpmx=   6.3823E-05

== TH FLOW =====================================================================
 Step    546 Time=  2.67000E+01 Dt=  5.00000E-02 [y] snes_conv_reason:   11
  newton =   1 [     553] linear =   132 [     70146] cuts =  0 [   0]
  --> max chng: dpmx=   1.4277E-03 dtmpmx=   6.2604E-05

== TH FLOW =====================================================================
 Step    547 Time=  2.67500E+01 Dt=  5.00000E-02 [y] snes_conv_reason:   11
  newton =   1 [     554] linear =   126 [     70272] cuts =  0 [   0]
  --> max chng: dpmx=   1.3823E-03 dtmpmx=   6.1374E-05

== TH FLOW =====================================================================
 Step    548 Time=  2.68000E+01 Dt=  5.00000E-02 [y] snes_conv_reason:   11
  newton =   1 [     555] linear =   131 [     70403] cuts =  0 [   0]
  --> max chng: dpmx=   1.3384E-03 dtmpmx=   6.0132E-05

== TH FLOW =====================================================================
 Step    549 Time=  2.68500E+01 Dt=  5.00000E-02 [y] snes_conv_reason:   11
  newton =   1 [     556] linear =   131 [     70534] cuts =  0 [   0]
  --> max chng: dpmx=   1.2942E-03 dtmpmx=   5.8882E-05

== TH FLOW =====================================================================
 Step    550 Time=  2.69000E+01 Dt=  5.00000E-02 [y] snes_conv_reason:   11
  newton =   1 [     557] linear =   131 [     70665] cuts =  0 [   0]
  --> max chng: dpmx=   1.2513E-03 dtmpmx=   5.7623E-05

== TH FLOW =====================================================================
 Step    551 Time=  2.69500E+01 Dt=  5.00000E-02 [y] snes_conv_reason:   11
  newton =   1 [     558] linear =   125 [     70790] cuts =  0 [   0]
  --> max chng: dpmx=   1.2095E-03 dtmpmx=   5.6357E-05

== TH FLOW =====================================================================
 Step    552 Time=  2.70000E+01 Dt=  5.00000E-02 [y] snes_conv_reason:   11
  newton =   1 [     559] linear =   124 [     70914] cuts =  0 [   0]
  --> max chng: dpmx=   1.1677E-03 dtmpmx=   5.5086E-05

== TH FLOW =====================================================================
 Step    553 Time=  2.70500E+01 Dt=  5.00000E-02 [y] snes_conv_reason:   11
  newton =   1 [     560] linear =   130 [     71044] cuts =  0 [   0]
  --> max chng: dpmx=   1.1274E-03 dtmpmx=   5.3810E-05

== TH FLOW =====================================================================
 Step    554 Time=  2.71000E+01 Dt=  5.00000E-02 [y] snes_conv_reason:   11
  newton =   1 [     561] linear =   131 [     71175] cuts =  0 [   0]
  --> max chng: dpmx=   1.0873E-03 dtmpmx=   5.2532E-05

== TH FLOW =====================================================================
 Step    555 Time=  2.71500E+01 Dt=  5.00000E-02 [y] snes_conv_reason:   11
  newton =   1 [     562] linear =   128 [     71303] cuts =  0 [   0]
  --> max chng: dpmx=   1.0487E-03 dtmpmx=   5.1259E-05

== TH FLOW =====================================================================
 Step    556 Time=  2.72000E+01 Dt=  5.00000E-02 [y] snes_conv_reason:   11
  newton =   1 [     563] linear =   126 [     71429] cuts =  0 [   0]
  --> max chng: dpmx=   1.0103E-03 dtmpmx=   5.0014E-05

== TH FLOW =====================================================================
 Step    557 Time=  2.72500E+01 Dt=  5.00000E-02 [y] snes_conv_reason:   11
  newton =   1 [     564] linear =   128 [     71557] cuts =  0 [   0]
  --> max chng: dpmx=   9.7289E-04 dtmpmx=   4.8770E-05

== TH FLOW =====================================================================
 Step    558 Time=  2.73000E+01 Dt=  5.00000E-02 [y] snes_conv_reason:   11
  newton =   1 [     565] linear =   134 [     71691] cuts =  0 [   0]
  --> max chng: dpmx=   9.3647E-04 dtmpmx=   4.7526E-05

== TH FLOW =====================================================================
 Step    559 Time=  2.73500E+01 Dt=  5.00000E-02 [y] snes_conv_reason:   11
  newton =   1 [     566] linear =   133 [     71824] cuts =  0 [   0]
  --> max chng: dpmx=   9.0083E-04 dtmpmx=   4.6284E-05

== TH FLOW =====================================================================
 Step    560 Time=  2.74000E+01 Dt=  5.00000E-02 [y] snes_conv_reason:   11
  newton =   1 [     567] linear =   132 [     71956] cuts =  0 [   0]
  --> max chng: dpmx=   8.6595E-04 dtmpmx=   4.5046E-05

== TH FLOW =====================================================================
 Step    561 Time=  2.74500E+01 Dt=  5.00000E-02 [y] snes_conv_reason:   11
  newton =   1 [     568] linear =   132 [     72088] cuts =  0 [   0]
  --> max chng: dpmx=   8.3185E-04 dtmpmx=   4.3812E-05

== TH FLOW =====================================================================
 Step    562 Time=  2.75000E+01 Dt=  5.00000E-02 [y] snes_conv_reason:   11
  newton =   1 [     569] linear =   133 [     72221] cuts =  0 [   0]
  --> max chng: dpmx=   7.9879E-04 dtmpmx=   4.2584E-05

 Wall Clock Time:  1.0757E+02 [sec]   1.7928E+00 [min]   2.9881E-02 [hr]
