
===================
  PFLOTRAN v3.0.1
===================

 Extent of Gridded Domain
  X: 2.5000000000000000 - 97.500000000000000
  Y: 2.5000000000000000 - 1277.5000000000000
  Z: 2.5000000000000000 - 2.5000000000000000


=+=+=+=+=+=+=+=+=+=+=+=+=+=+=+=+=+=+=+=+=+=+=+=+=+=+=+=+=+=+=+=+=+=+=+=+=+=+=+=+

  Initial Condition

--------------------------------------------------------------------------------
          Flow Condition:   initial
                  Region:   all
--------------------------------------------------------------------------------

  Flow Condition: initial
    Synchronize time with update: no
    Time units: yr
    Length units: m
      Datum:
        Dataset: Unnamed Ascii Dataset
          Type: dataset_ascii_type
          Transient: no
          Array Rank:  3

    Sub Condition: pressure
      Type: hydrostatic
      Gradient:
        Dataset: Unnamed Ascii Dataset
          Type: dataset_ascii_type
          Transient: no
          Array Rank:  3
      Data:
        Dataset: Unnamed Ascii Dataset
          Type: dataset_ascii_type
          Transient: no
          Array Rank:  1

    Sub Condition: temperature
      Type: dirichlet
      Gradient:
      Data:
        Dataset: Unnamed Ascii Dataset
          Type: dataset_ascii_type
          Transient: no
          Array Rank:  1

--------------------------------------------------------------------------------

=+=+=+=+=+=+=+=+=+=+=+=+=+=+=+=+=+=+=+=+=+=+=+=+=+=+=+=+=+=+=+=+=+=+=+=+=+=+=+=+

  Boundary Condition

--------------------------------------------------------------------------------
          Flow Condition:   initial
                  Region:   north
--------------------------------------------------------------------------------

  Flow Condition: initial
    Synchronize time with update: no
    Time units: yr
    Length units: m
      Datum:
        Dataset: Unnamed Ascii Dataset
          Type: dataset_ascii_type
          Transient: no
          Array Rank:  3

    Sub Condition: pressure
      Type: hydrostatic
      Gradient:
        Dataset: Unnamed Ascii Dataset
          Type: dataset_ascii_type
          Transient: no
          Array Rank:  3
      Data:
        Dataset: Unnamed Ascii Dataset
          Type: dataset_ascii_type
          Transient: no
          Array Rank:  1

    Sub Condition: temperature
      Type: dirichlet
      Gradient:
      Data:
        Dataset: Unnamed Ascii Dataset
          Type: dataset_ascii_type
          Transient: no
          Array Rank:  1

--------------------------------------------------------------------------------

=+=+=+=+=+=+=+=+=+=+=+=+=+=+=+=+=+=+=+=+=+=+=+=+=+=+=+=+=+=+=+=+=+=+=+=+=+=+=+=+

  Boundary Condition

--------------------------------------------------------------------------------
          Flow Condition:   initial
                  Region:   south
--------------------------------------------------------------------------------

  Flow Condition: initial
    Synchronize time with update: no
    Time units: yr
    Length units: m
      Datum:
        Dataset: Unnamed Ascii Dataset
          Type: dataset_ascii_type
          Transient: no
          Array Rank:  3

    Sub Condition: pressure
      Type: hydrostatic
      Gradient:
        Dataset: Unnamed Ascii Dataset
          Type: dataset_ascii_type
          Transient: no
          Array Rank:  3
      Data:
        Dataset: Unnamed Ascii Dataset
          Type: dataset_ascii_type
          Transient: no
          Array Rank:  1

    Sub Condition: temperature
      Type: dirichlet
      Gradient:
      Data:
        Dataset: Unnamed Ascii Dataset
          Type: dataset_ascii_type
          Transient: no
          Array Rank:  1

--------------------------------------------------------------------------------

=+=+=+=+=+=+=+=+=+=+=+=+=+=+=+=+=+=+=+=+=+=+=+=+=+=+=+=+=+=+=+=+=+=+=+=+=+=+=+=+

  Source Sink

--------------------------------------------------------------------------------
          Flow Condition:   injection
                  Region:   heatpump_inject0
--------------------------------------------------------------------------------

  Flow Condition: injection
    Synchronize time with update: no
    Time units: yr
    Length units: m
      Datum:

    Sub Condition: rate
      Type: scaled volumetric rate
      Gradient:
      Data:
        Dataset: Unnamed Ascii Dataset
          Type: dataset_ascii_type
          Is transient?: yes
          Number of times:      3
          Is cyclic?: no
          Buffer:
            Rank:  2
            Dims:    1   3
            Buffer Slice Size:   0
          Array Rank:  1

    Sub Condition: temperature
      Type: dirichlet
      Gradient:
      Data:
        Dataset: Unnamed Ascii Dataset
          Type: dataset_ascii_type
          Transient: no
          Array Rank:  1

--------------------------------------------------------------------------------

 Requested processors =    32

FLOW Time Stepper
                 acceleration: on
       acceleration threshold: 5
       number of ramp entries: 5
                ramp entry #1: 2.0000
                ramp entry #2: 2.0000
                ramp entry #3: 2.0000
                ramp entry #4: 2.0000
                ramp entry #5: 2.0000
                ramp entry #6: 1.8000
                ramp entry #7: 1.6000
                ramp entry #8: 1.4000
                ramp entry #9: 1.2000
               ramp entry #10: 1.0000
               ramp entry #11: 1.0000
               ramp entry #12: 1.0000
               ramp entry #13: 1.0000
      maximum number of steps: 999999
constant time steps threshold: 5
       maximum number of cuts: 16
             reduction factor: 5.000000E-01
        maximum growth factor: 2.000000E+00

FLOW Newton Solver
                         atol: 1.000000E-50
                         rtol: 1.000000E-03
                         stol: 1.000000E-08
                         dtol: 1.000000E+04
                      maxnorm: 1.000000E+20
                    inftolres: -9.990000E+02
                    inftolupd: 1.000000E+00
                 inftolrelupd: -9.990000E+02
                 inftolsclres: -9.990000E+02
                     max iter: 50
                     min iter: 1
                         maxf: 10000
                  matrix type: baij
         precond. matrix type: baij
               inexact newton: off
            print convergence: on
   print detailed convergence: off
          check infinity norm: on

FLOW Linear Solver
                       solver: bcgs
               preconditioner: bjacobi
                         atol: 1.000000E-50
                         rtol: 1.000000E-05
                         dtol: 1.000000E+04
            maximum iteration: 10000

== TH FLOW =====================================================================
 Step      1 Time=  1.00000E-05 Dt=  1.00000E-05 [y] snes_conv_reason:   11
  newton =   1 [       1] linear =    95 [        95] cuts =  0 [   0]
  --> max chng: dpmx=   2.1820E-02 dtmpmx=   7.5468E-10

== TH FLOW =====================================================================
 Step      2 Time=  3.00000E-05 Dt=  2.00000E-05 [y] snes_conv_reason:   11
  newton =   1 [       2] linear =    96 [       191] cuts =  0 [   0]
  --> max chng: dpmx=   3.3789E-02 dtmpmx=   1.4970E-09

== TH FLOW =====================================================================
 Step      3 Time=  7.00000E-05 Dt=  4.00000E-05 [y] snes_conv_reason:   11
  newton =   1 [       3] linear =   120 [       311] cuts =  0 [   0]
  --> max chng: dpmx=   3.8716E-02 dtmpmx=   2.9580E-09

== TH FLOW =====================================================================
 Step      4 Time=  1.50000E-04 Dt=  8.00000E-05 [y] snes_conv_reason:   11
  newton =   1 [       4] linear =   116 [       427] cuts =  0 [   0]
  --> max chng: dpmx=   3.0007E-02 dtmpmx=   5.8566E-09

== TH FLOW =====================================================================
 Step      5 Time=  3.10000E-04 Dt=  1.60000E-04 [y] snes_conv_reason:   11
  newton =   1 [       5] linear =   123 [       550] cuts =  0 [   0]
  --> max chng: dpmx=   1.4308E-02 dtmpmx=   1.1656E-08

== TH FLOW =====================================================================
 Step      6 Time=  6.30000E-04 Dt=  3.20000E-04 [y] snes_conv_reason:   11
  newton =   1 [       6] linear =   128 [       678] cuts =  0 [   0]
  --> max chng: dpmx=   3.8673E-03 dtmpmx=   2.3281E-08

== TH FLOW =====================================================================
 Step      7 Time=  1.27000E-03 Dt=  6.40000E-04 [y] snes_conv_reason:   11
  newton =   1 [       7] linear =   112 [       790] cuts =  0 [   0]
  --> max chng: dpmx=   5.6035E-04 dtmpmx=   4.6554E-08

== TH FLOW =====================================================================
 Step      8 Time=  2.55000E-03 Dt=  1.28000E-03 [y] snes_conv_reason:   11
  newton =   1 [       8] linear =   130 [       920] cuts =  0 [   0]
  --> max chng: dpmx=   4.1934E-05 dtmpmx=   9.3107E-08

== TH FLOW =====================================================================
 Step      9 Time=  5.11000E-03 Dt=  2.56000E-03 [y] snes_conv_reason:   11
  newton =   1 [       9] linear =   128 [      1048] cuts =  0 [   0]
  --> max chng: dpmx=   1.2212E-06 dtmpmx=   1.8621E-07

== TH FLOW =====================================================================
 Step     10 Time=  1.02300E-02 Dt=  5.12000E-03 [y] snes_conv_reason:   11
  newton =   1 [      10] linear =   130 [      1178] cuts =  0 [   0]
  --> max chng: dpmx=   1.6415E-06 dtmpmx=   3.7243E-07

== TH FLOW =====================================================================
 Step     11 Time=  2.04700E-02 Dt=  1.02400E-02 [y] snes_conv_reason:   11
  newton =   1 [      11] linear =   126 [      1304] cuts =  0 [   0]
  --> max chng: dpmx=   3.3566E-06 dtmpmx=   7.4486E-07

== TH FLOW =====================================================================
 Step     12 Time=  4.09500E-02 Dt=  2.04800E-02 [y] snes_conv_reason:   11
  newton =   1 [      12] linear =   122 [      1426] cuts =  0 [   0]
  --> max chng: dpmx=   6.9888E-06 dtmpmx=   1.4897E-06

== TH FLOW =====================================================================
 Step     13 Time=  8.19100E-02 Dt=  4.09600E-02 [y] snes_conv_reason:   11
  newton =   1 [      13] linear =   124 [      1550] cuts =  0 [   0]
  --> max chng: dpmx=   1.5085E-05 dtmpmx=   2.9794E-06

== TH FLOW =====================================================================
 Step     14 Time=  1.00000E-01 Dt=  1.80900E-02 [y] snes_conv_reason:   11
  newton =   1 [      14] linear =   127 [      1677] cuts =  0 [   0]
  --> max chng: dpmx=   6.8733E-06 dtmpmx=   1.3159E-06

== TH FLOW =====================================================================
 Step     15 Time=  1.50000E-01 Dt=  5.00000E-02 [y] snes_conv_reason:   11
  newton =   1 [      15] linear =   118 [      1795] cuts =  0 [   0]
  --> max chng: dpmx=   2.0649E-05 dtmpmx=   3.6370E-06

== TH FLOW =====================================================================
 Step     16 Time=  2.00000E-01 Dt=  5.00000E-02 [y] snes_conv_reason:   11
  newton =   1 [      16] linear =   124 [      1919] cuts =  0 [   0]
  --> max chng: dpmx=   2.2260E-05 dtmpmx=   3.6370E-06

== TH FLOW =====================================================================
 Step     17 Time=  2.50000E-01 Dt=  5.00000E-02 [y] snes_conv_reason:    3
  newton =   4 [      20] linear =   525 [      2444] cuts =  0 [   0]
  --> max chng: dpmx=   5.7282E+03 dtmpmx=   3.5020E+00

== TH FLOW =====================================================================
 Step     18 Time=  3.00000E-01 Dt=  5.00000E-02 [y] snes_conv_reason:   11
  newton =   2 [      22] linear =   261 [      2705] cuts =  0 [   0]
  --> max chng: dpmx=   3.6581E+01 dtmpmx=   1.2277E+00

== TH FLOW =====================================================================
 Step     19 Time=  3.50000E-01 Dt=  5.00000E-02 [y] snes_conv_reason:   11
  newton =   2 [      24] linear =   252 [      2957] cuts =  0 [   0]
  --> max chng: dpmx=   1.8337E+01 dtmpmx=   8.5550E-01

== TH FLOW =====================================================================
 Step     20 Time=  4.00000E-01 Dt=  5.00000E-02 [y] snes_conv_reason:   11
  newton =   2 [      26] linear =   260 [      3217] cuts =  0 [   0]
  --> max chng: dpmx=   1.1236E+01 dtmpmx=   6.3720E-01

== TH FLOW =====================================================================
 Step     21 Time=  4.50000E-01 Dt=  5.00000E-02 [y] snes_conv_reason:   11
  newton =   2 [      28] linear =   258 [      3475] cuts =  0 [   0]
  --> max chng: dpmx=   8.0605E+00 dtmpmx=   5.5446E-01

== TH FLOW =====================================================================
 Step     22 Time=  5.00000E-01 Dt=  5.00000E-02 [y] snes_conv_reason:    3
  newton =   1 [      29] linear =   132 [      3607] cuts =  0 [   0]
  --> max chng: dpmx=   6.3662E+00 dtmpmx=   4.5991E-01

== TH FLOW =====================================================================
 Step     23 Time=  5.50000E-01 Dt=  5.00000E-02 [y] snes_conv_reason:    3
  newton =   1 [      30] linear =   133 [      3740] cuts =  0 [   0]
  --> max chng: dpmx=   5.2110E+00 dtmpmx=   4.0634E-01

== TH FLOW =====================================================================
 Step     24 Time=  6.00000E-01 Dt=  5.00000E-02 [y] snes_conv_reason:    3
  newton =   1 [      31] linear =   134 [      3874] cuts =  0 [   0]
  --> max chng: dpmx=   4.4295E+00 dtmpmx=   3.7884E-01

== TH FLOW =====================================================================
 Step     25 Time=  6.50000E-01 Dt=  5.00000E-02 [y] snes_conv_reason:    3
  newton =   1 [      32] linear =   128 [      4002] cuts =  0 [   0]
  --> max chng: dpmx=   3.8422E+00 dtmpmx=   3.4375E-01

== TH FLOW =====================================================================
 Step     26 Time=  7.00000E-01 Dt=  5.00000E-02 [y] snes_conv_reason:    3
  newton =   1 [      33] linear =   134 [      4136] cuts =  0 [   0]
  --> max chng: dpmx=   3.3868E+00 dtmpmx=   3.0580E-01

== TH FLOW =====================================================================
 Step     27 Time=  7.50000E-01 Dt=  5.00000E-02 [y] snes_conv_reason:    3
  newton =   1 [      34] linear =   135 [      4271] cuts =  0 [   0]
  --> max chng: dpmx=   3.0251E+00 dtmpmx=   2.8822E-01

== TH FLOW =====================================================================
 Step     28 Time=  8.00000E-01 Dt=  5.00000E-02 [y] snes_conv_reason:    3
  newton =   1 [      35] linear =   137 [      4408] cuts =  0 [   0]
  --> max chng: dpmx=   2.7268E+00 dtmpmx=   2.7600E-01

== TH FLOW =====================================================================
 Step     29 Time=  8.50000E-01 Dt=  5.00000E-02 [y] snes_conv_reason:    3
  newton =   1 [      36] linear =   139 [      4547] cuts =  0 [   0]
  --> max chng: dpmx=   2.4768E+00 dtmpmx=   2.6014E-01

== TH FLOW =====================================================================
 Step     30 Time=  9.00000E-01 Dt=  5.00000E-02 [y] snes_conv_reason:    3
  newton =   1 [      37] linear =   138 [      4685] cuts =  0 [   0]
  --> max chng: dpmx=   2.2645E+00 dtmpmx=   2.4245E-01

== TH FLOW =====================================================================
 Step     31 Time=  9.50000E-01 Dt=  5.00000E-02 [y] snes_conv_reason:    3
  newton =   1 [      38] linear =   139 [      4824] cuts =  0 [   0]
  --> max chng: dpmx=   2.0832E+00 dtmpmx=   2.2740E-01

== TH FLOW =====================================================================
 Step     32 Time=  1.00000E+00 Dt=  5.00000E-02 [y] snes_conv_reason:    3
  newton =   1 [      39] linear =   134 [      4958] cuts =  0 [   0]
  --> max chng: dpmx=   1.9993E+00 dtmpmx=   2.2214E-01

== TH FLOW =====================================================================
 Step     33 Time=  1.05000E+00 Dt=  5.00000E-02 [y] snes_conv_reason:    3
  newton =   1 [      40] linear =   131 [      5089] cuts =  0 [   0]
  --> max chng: dpmx=   1.9893E+00 dtmpmx=   2.1456E-01

== TH FLOW =====================================================================
 Step     34 Time=  1.10000E+00 Dt=  5.00000E-02 [y] snes_conv_reason:    3
  newton =   1 [      41] linear =   134 [      5223] cuts =  0 [   0]
  --> max chng: dpmx=   1.9732E+00 dtmpmx=   2.0522E-01

== TH FLOW =====================================================================
 Step     35 Time=  1.15000E+00 Dt=  5.00000E-02 [y] snes_conv_reason:    3
  newton =   1 [      42] linear =   134 [      5357] cuts =  0 [   0]
  --> max chng: dpmx=   1.9537E+00 dtmpmx=   1.9461E-01

== TH FLOW =====================================================================
 Step     36 Time=  1.20000E+00 Dt=  5.00000E-02 [y] snes_conv_reason:    3
  newton =   1 [      43] linear =   135 [      5492] cuts =  0 [   0]
  --> max chng: dpmx=   1.9385E+00 dtmpmx=   1.8428E-01

== TH FLOW =====================================================================
 Step     37 Time=  1.25000E+00 Dt=  5.00000E-02 [y] snes_conv_reason:    3
  newton =   1 [      44] linear =   136 [      5628] cuts =  0 [   0]
  --> max chng: dpmx=   1.9350E+00 dtmpmx=   1.8109E-01

== TH FLOW =====================================================================
 Step     38 Time=  1.30000E+00 Dt=  5.00000E-02 [y] snes_conv_reason:    3
  newton =   1 [      45] linear =   135 [      5763] cuts =  0 [   0]
  --> max chng: dpmx=   1.9270E+00 dtmpmx=   1.7709E-01

== TH FLOW =====================================================================
 Step     39 Time=  1.35000E+00 Dt=  5.00000E-02 [y] snes_conv_reason:    3
  newton =   1 [      46] linear =   135 [      5898] cuts =  0 [   0]
  --> max chng: dpmx=   1.9164E+00 dtmpmx=   1.7196E-01

== TH FLOW =====================================================================
 Step     40 Time=  1.40000E+00 Dt=  5.00000E-02 [y] snes_conv_reason:    3
  newton =   1 [      47] linear =   134 [      6032] cuts =  0 [   0]
  --> max chng: dpmx=   1.9028E+00 dtmpmx=   1.6592E-01

== TH FLOW =====================================================================
 Step     41 Time=  1.45000E+00 Dt=  5.00000E-02 [y] snes_conv_reason:    3
  newton =   1 [      48] linear =   135 [      6167] cuts =  0 [   0]
  --> max chng: dpmx=   1.8933E+00 dtmpmx=   1.5917E-01

== TH FLOW =====================================================================
 Step     42 Time=  1.50000E+00 Dt=  5.00000E-02 [y] snes_conv_reason:    3
  newton =   1 [      49] linear =   136 [      6303] cuts =  0 [   0]
  --> max chng: dpmx=   1.8918E+00 dtmpmx=   1.5302E-01

== TH FLOW =====================================================================
 Step     43 Time=  1.55000E+00 Dt=  5.00000E-02 [y] snes_conv_reason:    3
  newton =   1 [      50] linear =   139 [      6442] cuts =  0 [   0]
  --> max chng: dpmx=   1.8863E+00 dtmpmx=   1.5085E-01

== TH FLOW =====================================================================
 Step     44 Time=  1.60000E+00 Dt=  5.00000E-02 [y] snes_conv_reason:    3
  newton =   1 [      51] linear =   139 [      6581] cuts =  0 [   0]
  --> max chng: dpmx=   1.8800E+00 dtmpmx=   1.4838E-01

== TH FLOW =====================================================================
 Step     45 Time=  1.65000E+00 Dt=  5.00000E-02 [y] snes_conv_reason:    3
  newton =   1 [      52] linear =   139 [      6720] cuts =  0 [   0]
  --> max chng: dpmx=   1.8701E+00 dtmpmx=   1.4522E-01

== TH FLOW =====================================================================
 Step     46 Time=  1.70000E+00 Dt=  5.00000E-02 [y] snes_conv_reason:    3
  newton =   1 [      53] linear =   139 [      6859] cuts =  0 [   0]
  --> max chng: dpmx=   1.8631E+00 dtmpmx=   1.4146E-01

== TH FLOW =====================================================================
 Step     47 Time=  1.75000E+00 Dt=  5.00000E-02 [y] snes_conv_reason:    3
  newton =   1 [      54] linear =   141 [      7000] cuts =  0 [   0]
  --> max chng: dpmx=   1.8613E+00 dtmpmx=   1.3720E-01

== TH FLOW =====================================================================
 Step     48 Time=  1.80000E+00 Dt=  5.00000E-02 [y] snes_conv_reason:    3
  newton =   1 [      55] linear =   138 [      7138] cuts =  0 [   0]
  --> max chng: dpmx=   1.8591E+00 dtmpmx=   1.3276E-01

== TH FLOW =====================================================================
 Step     49 Time=  1.85000E+00 Dt=  5.00000E-02 [y] snes_conv_reason:    3
  newton =   1 [      56] linear =   139 [      7277] cuts =  0 [   0]
  --> max chng: dpmx=   1.8547E+00 dtmpmx=   1.2969E-01

== TH FLOW =====================================================================
 Step     50 Time=  1.90000E+00 Dt=  5.00000E-02 [y] snes_conv_reason:    3
  newton =   1 [      57] linear =   140 [      7417] cuts =  0 [   0]
  --> max chng: dpmx=   1.8482E+00 dtmpmx=   1.2839E-01

== TH FLOW =====================================================================
 Step     51 Time=  1.95000E+00 Dt=  5.00000E-02 [y] snes_conv_reason:    3
  newton =   1 [      58] linear =   140 [      7557] cuts =  0 [   0]
  --> max chng: dpmx=   1.8407E+00 dtmpmx=   1.2659E-01

== TH FLOW =====================================================================
 Step     52 Time=  2.00000E+00 Dt=  5.00000E-02 [y] snes_conv_reason:    3
  newton =   1 [      59] linear =   139 [      7696] cuts =  0 [   0]
  --> max chng: dpmx=   1.8395E+00 dtmpmx=   1.2434E-01

== TH FLOW =====================================================================
 Step     53 Time=  2.05000E+00 Dt=  5.00000E-02 [y] snes_conv_reason:    3
  newton =   1 [      60] linear =   139 [      7835] cuts =  0 [   0]
  --> max chng: dpmx=   1.8387E+00 dtmpmx=   1.2172E-01

== TH FLOW =====================================================================
 Step     54 Time=  2.10000E+00 Dt=  5.00000E-02 [y] snes_conv_reason:    3
  newton =   1 [      61] linear =   140 [      7975] cuts =  0 [   0]
  --> max chng: dpmx=   1.8361E+00 dtmpmx=   1.1876E-01

== TH FLOW =====================================================================
 Step     55 Time=  2.15000E+00 Dt=  5.00000E-02 [y] snes_conv_reason:    3
  newton =   1 [      62] linear =   131 [      8106] cuts =  0 [   0]
  --> max chng: dpmx=   1.8321E+00 dtmpmx=   1.1574E-01

== TH FLOW =====================================================================
 Step     56 Time=  2.20000E+00 Dt=  5.00000E-02 [y] snes_conv_reason:    3
  newton =   1 [      63] linear =   133 [      8239] cuts =  0 [   0]
  --> max chng: dpmx=   1.8271E+00 dtmpmx=   1.1338E-01

== TH FLOW =====================================================================
 Step     57 Time=  2.25000E+00 Dt=  5.00000E-02 [y] snes_conv_reason:    3
  newton =   1 [      64] linear =   133 [      8372] cuts =  0 [   0]
  --> max chng: dpmx=   1.8234E+00 dtmpmx=   1.1243E-01

== TH FLOW =====================================================================
 Step     58 Time=  2.30000E+00 Dt=  5.00000E-02 [y] snes_conv_reason:    3
  newton =   1 [      65] linear =   133 [      8505] cuts =  0 [   0]
  --> max chng: dpmx=   1.8231E+00 dtmpmx=   1.1122E-01

== TH FLOW =====================================================================
 Step     59 Time=  2.35000E+00 Dt=  5.00000E-02 [y] snes_conv_reason:    3
  newton =   1 [      66] linear =   131 [      8636] cuts =  0 [   0]
  --> max chng: dpmx=   1.8214E+00 dtmpmx=   1.0970E-01

== TH FLOW =====================================================================
 Step     60 Time=  2.40000E+00 Dt=  5.00000E-02 [y] snes_conv_reason:    3
  newton =   1 [      67] linear =   134 [      8770] cuts =  0 [   0]
  --> max chng: dpmx=   1.8209E+00 dtmpmx=   1.0790E-01

== TH FLOW =====================================================================
 Step     61 Time=  2.45000E+00 Dt=  5.00000E-02 [y] snes_conv_reason:    3
  newton =   1 [      68] linear =   133 [      8903] cuts =  0 [   0]
  --> max chng: dpmx=   1.8170E+00 dtmpmx=   1.0585E-01

== TH FLOW =====================================================================
 Step     62 Time=  2.50000E+00 Dt=  5.00000E-02 [y] snes_conv_reason:    3
  newton =   1 [      69] linear =   131 [      9034] cuts =  0 [   0]
  --> max chng: dpmx=   1.8131E+00 dtmpmx=   1.0358E-01

== TH FLOW =====================================================================
 Step     63 Time=  2.55000E+00 Dt=  5.00000E-02 [y] snes_conv_reason:    3
  newton =   1 [      70] linear =   131 [      9165] cuts =  0 [   0]
  --> max chng: dpmx=   1.8104E+00 dtmpmx=   1.0192E-01

== TH FLOW =====================================================================
 Step     64 Time=  2.60000E+00 Dt=  5.00000E-02 [y] snes_conv_reason:    3
  newton =   1 [      71] linear =   131 [      9296] cuts =  0 [   0]
  --> max chng: dpmx=   1.8106E+00 dtmpmx=   1.0050E-01

== TH FLOW =====================================================================
 Step     65 Time=  2.65000E+00 Dt=  5.00000E-02 [y] snes_conv_reason:    3
  newton =   1 [      72] linear =   131 [      9427] cuts =  0 [   0]
  --> max chng: dpmx=   1.8107E+00 dtmpmx=   9.9742E-02

== TH FLOW =====================================================================
 Step     66 Time=  2.70000E+00 Dt=  5.00000E-02 [y] snes_conv_reason:    3
  newton =   1 [      73] linear =   132 [      9559] cuts =  0 [   0]
  --> max chng: dpmx=   1.8085E+00 dtmpmx=   9.8749E-02

== TH FLOW =====================================================================
 Step     67 Time=  2.75000E+00 Dt=  5.00000E-02 [y] snes_conv_reason:    3
  newton =   1 [      74] linear =   133 [      9692] cuts =  0 [   0]
  --> max chng: dpmx=   1.8063E+00 dtmpmx=   9.7540E-02

== TH FLOW =====================================================================
 Step     68 Time=  2.80000E+00 Dt=  5.00000E-02 [y] snes_conv_reason:    3
  newton =   1 [      75] linear =   120 [      9812] cuts =  0 [   0]
  --> max chng: dpmx=   1.8035E+00 dtmpmx=   9.6134E-02

== TH FLOW =====================================================================
 Step     69 Time=  2.85000E+00 Dt=  5.00000E-02 [y] snes_conv_reason:    3
  newton =   1 [      76] linear =   138 [      9950] cuts =  0 [   0]
  --> max chng: dpmx=   1.8017E+00 dtmpmx=   9.4549E-02

== TH FLOW =====================================================================
 Step     70 Time=  2.90000E+00 Dt=  5.00000E-02 [y] snes_conv_reason:    3
  newton =   1 [      77] linear =   130 [     10080] cuts =  0 [   0]
  --> max chng: dpmx=   1.8015E+00 dtmpmx=   9.3011E-02

== TH FLOW =====================================================================
 Step     71 Time=  2.95000E+00 Dt=  5.00000E-02 [y] snes_conv_reason:    3
  newton =   1 [      78] linear =   132 [     10212] cuts =  0 [   0]
  --> max chng: dpmx=   1.8020E+00 dtmpmx=   9.1858E-02

== TH FLOW =====================================================================
 Step     72 Time=  3.00000E+00 Dt=  5.00000E-02 [y] snes_conv_reason:    3
  newton =   1 [      79] linear =   132 [     10344] cuts =  0 [   0]
  --> max chng: dpmx=   1.8004E+00 dtmpmx=   9.0735E-02

== TH FLOW =====================================================================
 Step     73 Time=  3.05000E+00 Dt=  5.00000E-02 [y] snes_conv_reason:    3
  newton =   1 [      80] linear =   139 [     10483] cuts =  0 [   0]
  --> max chng: dpmx=   1.7989E+00 dtmpmx=   9.0130E-02

== TH FLOW =====================================================================
 Step     74 Time=  3.10000E+00 Dt=  5.00000E-02 [y] snes_conv_reason:    3
  newton =   1 [      81] linear =   140 [     10623] cuts =  0 [   0]
  --> max chng: dpmx=   1.7966E+00 dtmpmx=   8.9351E-02

== TH FLOW =====================================================================
 Step     75 Time=  3.15000E+00 Dt=  5.00000E-02 [y] snes_conv_reason:    3
  newton =   1 [      82] linear =   130 [     10753] cuts =  0 [   0]
  --> max chng: dpmx=   1.7952E+00 dtmpmx=   8.8410E-02

== TH FLOW =====================================================================
 Step     76 Time=  3.20000E+00 Dt=  5.00000E-02 [y] snes_conv_reason:    3
  newton =   1 [      83] linear =   132 [     10885] cuts =  0 [   0]
  --> max chng: dpmx=   1.7948E+00 dtmpmx=   8.7319E-02

== TH FLOW =====================================================================
 Step     77 Time=  3.25000E+00 Dt=  5.00000E-02 [y] snes_conv_reason:    3
  newton =   1 [      84] linear =   133 [     11018] cuts =  0 [   0]
  --> max chng: dpmx=   1.7957E+00 dtmpmx=   8.6090E-02

== TH FLOW =====================================================================
 Step     78 Time=  3.30000E+00 Dt=  5.00000E-02 [y] snes_conv_reason:    3
  newton =   1 [      85] linear =   132 [     11150] cuts =  0 [   0]
  --> max chng: dpmx=   1.7950E+00 dtmpmx=   8.5023E-02

== TH FLOW =====================================================================
 Step     79 Time=  3.35000E+00 Dt=  5.00000E-02 [y] snes_conv_reason:    3
  newton =   1 [      86] linear =   136 [     11286] cuts =  0 [   0]
  --> max chng: dpmx=   1.7933E+00 dtmpmx=   8.4160E-02

== TH FLOW =====================================================================
 Step     80 Time=  3.40000E+00 Dt=  5.00000E-02 [y] snes_conv_reason:    3
  newton =   1 [      87] linear =   137 [     11423] cuts =  0 [   0]
  --> max chng: dpmx=   1.7913E+00 dtmpmx=   8.3170E-02

== TH FLOW =====================================================================
 Step     81 Time=  3.45000E+00 Dt=  5.00000E-02 [y] snes_conv_reason:    3
  newton =   1 [      88] linear =   135 [     11558] cuts =  0 [   0]
  --> max chng: dpmx=   1.7900E+00 dtmpmx=   8.2610E-02

== TH FLOW =====================================================================
 Step     82 Time=  3.50000E+00 Dt=  5.00000E-02 [y] snes_conv_reason:    3
  newton =   1 [      89] linear =   137 [     11695] cuts =  0 [   0]
  --> max chng: dpmx=   1.7907E+00 dtmpmx=   8.2012E-02

== TH FLOW =====================================================================
 Step     83 Time=  3.55000E+00 Dt=  5.00000E-02 [y] snes_conv_reason:    3
  newton =   1 [      90] linear =   137 [     11832] cuts =  0 [   0]
  --> max chng: dpmx=   1.7910E+00 dtmpmx=   8.1285E-02

== TH FLOW =====================================================================
 Step     84 Time=  3.60000E+00 Dt=  5.00000E-02 [y] snes_conv_reason:    3
  newton =   1 [      91] linear =   140 [     11972] cuts =  0 [   0]
  --> max chng: dpmx=   1.7900E+00 dtmpmx=   8.0439E-02

== TH FLOW =====================================================================
 Step     85 Time=  3.65000E+00 Dt=  5.00000E-02 [y] snes_conv_reason:    3
  newton =   1 [      92] linear =   135 [     12107] cuts =  0 [   0]
  --> max chng: dpmx=   1.7896E+00 dtmpmx=   7.9482E-02

== TH FLOW =====================================================================
 Step     86 Time=  3.70000E+00 Dt=  5.00000E-02 [y] snes_conv_reason:    3
  newton =   1 [      93] linear =   127 [     12234] cuts =  0 [   0]
  --> max chng: dpmx=   1.7881E+00 dtmpmx=   7.8676E-02

== TH FLOW =====================================================================
 Step     87 Time=  3.75000E+00 Dt=  5.00000E-02 [y] snes_conv_reason:    3
  newton =   1 [      94] linear =   134 [     12368] cuts =  0 [   0]
  --> max chng: dpmx=   1.7858E+00 dtmpmx=   7.8032E-02

== TH FLOW =====================================================================
 Step     88 Time=  3.80000E+00 Dt=  5.00000E-02 [y] snes_conv_reason:    3
  newton =   1 [      95] linear =   137 [     12505] cuts =  0 [   0]
  --> max chng: dpmx=   1.7874E+00 dtmpmx=   7.7282E-02

== TH FLOW =====================================================================
 Step     89 Time=  3.85000E+00 Dt=  5.00000E-02 [y] snes_conv_reason:    3
  newton =   1 [      96] linear =   136 [     12641] cuts =  0 [   0]
  --> max chng: dpmx=   1.7873E+00 dtmpmx=   7.6553E-02

== TH FLOW =====================================================================
 Step     90 Time=  3.90000E+00 Dt=  5.00000E-02 [y] snes_conv_reason:    3
  newton =   1 [      97] linear =   140 [     12781] cuts =  0 [   0]
  --> max chng: dpmx=   1.7871E+00 dtmpmx=   7.6101E-02

== TH FLOW =====================================================================
 Step     91 Time=  3.95000E+00 Dt=  5.00000E-02 [y] snes_conv_reason:    3
  newton =   1 [      98] linear =   140 [     12921] cuts =  0 [   0]
  --> max chng: dpmx=   1.7865E+00 dtmpmx=   7.5544E-02

== TH FLOW =====================================================================
 Step     92 Time=  4.00000E+00 Dt=  5.00000E-02 [y] snes_conv_reason:    3
  newton =   1 [      99] linear =   136 [     13057] cuts =  0 [   0]
  --> max chng: dpmx=   1.7857E+00 dtmpmx=   7.4888E-02

== TH FLOW =====================================================================
 Step     93 Time=  4.05000E+00 Dt=  5.00000E-02 [y] snes_conv_reason:    3
  newton =   1 [     100] linear =   141 [     13198] cuts =  0 [   0]
  --> max chng: dpmx=   1.7838E+00 dtmpmx=   7.4140E-02

== TH FLOW =====================================================================
 Step     94 Time=  4.10000E+00 Dt=  5.00000E-02 [y] snes_conv_reason:    3
  newton =   1 [     101] linear =   141 [     13339] cuts =  0 [   0]
  --> max chng: dpmx=   1.7841E+00 dtmpmx=   7.3479E-02

== TH FLOW =====================================================================
 Step     95 Time=  4.15000E+00 Dt=  5.00000E-02 [y] snes_conv_reason:    3
  newton =   1 [     102] linear =   141 [     13480] cuts =  0 [   0]
  --> max chng: dpmx=   1.7849E+00 dtmpmx=   7.3001E-02

== TH FLOW =====================================================================
 Step     96 Time=  4.20000E+00 Dt=  5.00000E-02 [y] snes_conv_reason:    3
  newton =   1 [     103] linear =   140 [     13620] cuts =  0 [   0]
  --> max chng: dpmx=   1.7842E+00 dtmpmx=   7.2433E-02

== TH FLOW =====================================================================
 Step     97 Time=  4.25000E+00 Dt=  5.00000E-02 [y] snes_conv_reason:    3
  newton =   1 [     104] linear =   140 [     13760] cuts =  0 [   0]
  --> max chng: dpmx=   1.7848E+00 dtmpmx=   7.1781E-02

== TH FLOW =====================================================================
 Step     98 Time=  4.30000E+00 Dt=  5.00000E-02 [y] snes_conv_reason:    3
  newton =   1 [     105] linear =   142 [     13902] cuts =  0 [   0]
  --> max chng: dpmx=   1.7834E+00 dtmpmx=   7.1215E-02

== TH FLOW =====================================================================
 Step     99 Time=  4.35000E+00 Dt=  5.00000E-02 [y] snes_conv_reason:    3
  newton =   1 [     106] linear =   129 [     14031] cuts =  0 [   0]
  --> max chng: dpmx=   1.7827E+00 dtmpmx=   7.0793E-02

== TH FLOW =====================================================================
 Step    100 Time=  4.40000E+00 Dt=  5.00000E-02 [y] snes_conv_reason:    3
  newton =   1 [     107] linear =   139 [     14170] cuts =  0 [   0]
  --> max chng: dpmx=   1.7818E+00 dtmpmx=   7.0286E-02

== TH FLOW =====================================================================
 Step    101 Time=  4.45000E+00 Dt=  5.00000E-02 [y] snes_conv_reason:    3
  newton =   1 [     108] linear =   141 [     14311] cuts =  0 [   0]
  --> max chng: dpmx=   1.7824E+00 dtmpmx=   6.9701E-02

== TH FLOW =====================================================================
 Step    102 Time=  4.50000E+00 Dt=  5.00000E-02 [y] snes_conv_reason:    3
  newton =   1 [     109] linear =   142 [     14453] cuts =  0 [   0]
  --> max chng: dpmx=   1.7828E+00 dtmpmx=   6.9119E-02

== TH FLOW =====================================================================
 Step    103 Time=  4.55000E+00 Dt=  5.00000E-02 [y] snes_conv_reason:    3
  newton =   1 [     110] linear =   141 [     14594] cuts =  0 [   0]
  --> max chng: dpmx=   1.7826E+00 dtmpmx=   6.8770E-02

== TH FLOW =====================================================================
 Step    104 Time=  4.60000E+00 Dt=  5.00000E-02 [y] snes_conv_reason:    3
  newton =   1 [     111] linear =   131 [     14725] cuts =  0 [   0]
  --> max chng: dpmx=   1.7826E+00 dtmpmx=   6.8343E-02

== TH FLOW =====================================================================
 Step    105 Time=  4.65000E+00 Dt=  5.00000E-02 [y] snes_conv_reason:    3
  newton =   1 [     112] linear =   133 [     14858] cuts =  0 [   0]
  --> max chng: dpmx=   1.7809E+00 dtmpmx=   6.7844E-02

== TH FLOW =====================================================================
 Step    106 Time=  4.70000E+00 Dt=  5.00000E-02 [y] snes_conv_reason:    3
  newton =   1 [     113] linear =   132 [     14990] cuts =  0 [   0]
  --> max chng: dpmx=   1.7804E+00 dtmpmx=   6.7274E-02

== TH FLOW =====================================================================
 Step    107 Time=  4.75000E+00 Dt=  5.00000E-02 [y] snes_conv_reason:    3
  newton =   1 [     114] linear =   135 [     15125] cuts =  0 [   0]
  --> max chng: dpmx=   1.7804E+00 dtmpmx=   6.6775E-02

== TH FLOW =====================================================================
 Step    108 Time=  4.80000E+00 Dt=  5.00000E-02 [y] snes_conv_reason:    3
  newton =   1 [     115] linear =   137 [     15262] cuts =  0 [   0]
  --> max chng: dpmx=   1.7812E+00 dtmpmx=   6.6387E-02

== TH FLOW =====================================================================
 Step    109 Time=  4.85000E+00 Dt=  5.00000E-02 [y] snes_conv_reason:    3
  newton =   1 [     116] linear =   137 [     15399] cuts =  0 [   0]
  --> max chng: dpmx=   1.7811E+00 dtmpmx=   6.5931E-02

== TH FLOW =====================================================================
 Step    110 Time=  4.90000E+00 Dt=  5.00000E-02 [y] snes_conv_reason:    3
  newton =   1 [     117] linear =   138 [     15537] cuts =  0 [   0]
  --> max chng: dpmx=   1.7811E+00 dtmpmx=   6.5409E-02

== TH FLOW =====================================================================
 Step    111 Time=  4.95000E+00 Dt=  5.00000E-02 [y] snes_conv_reason:    3
  newton =   1 [     118] linear =   137 [     15674] cuts =  0 [   0]
  --> max chng: dpmx=   1.7805E+00 dtmpmx=   6.5141E-02

== TH FLOW =====================================================================
 Step    112 Time=  5.00000E+00 Dt=  5.00000E-02 [y] snes_conv_reason:    3
  newton =   1 [     119] linear =   138 [     15812] cuts =  0 [   0]
  --> max chng: dpmx=   1.7793E+00 dtmpmx=   6.4826E-02

== TH FLOW =====================================================================
 Step    113 Time=  5.05000E+00 Dt=  5.00000E-02 [y] snes_conv_reason:    3
  newton =   1 [     120] linear =   137 [     15949] cuts =  0 [   0]
  --> max chng: dpmx=   1.7790E+00 dtmpmx=   6.4446E-02

== TH FLOW =====================================================================
 Step    114 Time=  5.10000E+00 Dt=  5.00000E-02 [y] snes_conv_reason:    3
  newton =   1 [     121] linear =   136 [     16085] cuts =  0 [   0]
  --> max chng: dpmx=   1.7793E+00 dtmpmx=   6.4004E-02

== TH FLOW =====================================================================
 Step    115 Time=  5.15000E+00 Dt=  5.00000E-02 [y] snes_conv_reason:    3
  newton =   1 [     122] linear =   139 [     16224] cuts =  0 [   0]
  --> max chng: dpmx=   1.7800E+00 dtmpmx=   6.3504E-02

== TH FLOW =====================================================================
 Step    116 Time=  5.20000E+00 Dt=  5.00000E-02 [y] snes_conv_reason:    3
  newton =   1 [     123] linear =   137 [     16361] cuts =  0 [   0]
  --> max chng: dpmx=   1.7799E+00 dtmpmx=   6.3025E-02

== TH FLOW =====================================================================
 Step    117 Time=  5.25000E+00 Dt=  5.00000E-02 [y] snes_conv_reason:    3
  newton =   1 [     124] linear =   136 [     16497] cuts =  0 [   0]
  --> max chng: dpmx=   1.7793E+00 dtmpmx=   6.2672E-02

== TH FLOW =====================================================================
 Step    118 Time=  5.30000E+00 Dt=  5.00000E-02 [y] snes_conv_reason:    3
  newton =   1 [     125] linear =   139 [     16636] cuts =  0 [   0]
  --> max chng: dpmx=   1.7792E+00 dtmpmx=   6.2261E-02

== TH FLOW =====================================================================
 Step    119 Time=  5.35000E+00 Dt=  5.00000E-02 [y] snes_conv_reason:    3
  newton =   1 [     126] linear =   139 [     16775] cuts =  0 [   0]
  --> max chng: dpmx=   1.7778E+00 dtmpmx=   6.1980E-02

== TH FLOW =====================================================================
 Step    120 Time=  5.40000E+00 Dt=  5.00000E-02 [y] snes_conv_reason:    3
  newton =   1 [     127] linear =   138 [     16913] cuts =  0 [   0]
  --> max chng: dpmx=   1.7776E+00 dtmpmx=   6.1753E-02

== TH FLOW =====================================================================
 Step    121 Time=  5.45000E+00 Dt=  5.00000E-02 [y] snes_conv_reason:    3
  newton =   1 [     128] linear =   140 [     17053] cuts =  0 [   0]
  --> max chng: dpmx=   1.7790E+00 dtmpmx=   6.1469E-02

== TH FLOW =====================================================================
 Step    122 Time=  5.50000E+00 Dt=  5.00000E-02 [y] snes_conv_reason:    3
  newton =   1 [     129] linear =   139 [     17192] cuts =  0 [   0]
  --> max chng: dpmx=   1.7785E+00 dtmpmx=   6.1130E-02

== TH FLOW =====================================================================
 Step    123 Time=  5.55000E+00 Dt=  5.00000E-02 [y] snes_conv_reason:    3
  newton =   1 [     130] linear =   139 [     17331] cuts =  0 [   0]
  --> max chng: dpmx=   1.7787E+00 dtmpmx=   6.0737E-02

== TH FLOW =====================================================================
 Step    124 Time=  5.60000E+00 Dt=  5.00000E-02 [y] snes_conv_reason:    3
  newton =   1 [     131] linear =   139 [     17470] cuts =  0 [   0]
  --> max chng: dpmx=   1.7782E+00 dtmpmx=   6.0294E-02

== TH FLOW =====================================================================
 Step    125 Time=  5.65000E+00 Dt=  5.00000E-02 [y] snes_conv_reason:    3
  newton =   1 [     132] linear =   140 [     17610] cuts =  0 [   0]
  --> max chng: dpmx=   1.7776E+00 dtmpmx=   5.9813E-02

== TH FLOW =====================================================================
 Step    126 Time=  5.70000E+00 Dt=  5.00000E-02 [y] snes_conv_reason:    3
  newton =   1 [     133] linear =   139 [     17749] cuts =  0 [   0]
  --> max chng: dpmx=   1.7766E+00 dtmpmx=   5.9491E-02

== TH FLOW =====================================================================
 Step    127 Time=  5.75000E+00 Dt=  5.00000E-02 [y] snes_conv_reason:    3
  newton =   1 [     134] linear =   139 [     17888] cuts =  0 [   0]
  --> max chng: dpmx=   1.7773E+00 dtmpmx=   5.9242E-02

== TH FLOW =====================================================================
 Step    128 Time=  5.80000E+00 Dt=  5.00000E-02 [y] snes_conv_reason:    3
  newton =   1 [     135] linear =   139 [     18027] cuts =  0 [   0]
  --> max chng: dpmx=   1.7773E+00 dtmpmx=   5.9036E-02

== TH FLOW =====================================================================
 Step    129 Time=  5.85000E+00 Dt=  5.00000E-02 [y] snes_conv_reason:    3
  newton =   1 [     136] linear =   136 [     18163] cuts =  0 [   0]
  --> max chng: dpmx=   1.7775E+00 dtmpmx=   5.8829E-02

== TH FLOW =====================================================================
 Step    130 Time=  5.90000E+00 Dt=  5.00000E-02 [y] snes_conv_reason:    3
  newton =   1 [     137] linear =   138 [     18301] cuts =  0 [   0]
  --> max chng: dpmx=   1.7776E+00 dtmpmx=   5.8572E-02

== TH FLOW =====================================================================
 Step    131 Time=  5.95000E+00 Dt=  5.00000E-02 [y] snes_conv_reason:    3
  newton =   1 [     138] linear =   138 [     18439] cuts =  0 [   0]
  --> max chng: dpmx=   1.7767E+00 dtmpmx=   5.8267E-02

== TH FLOW =====================================================================
 Step    132 Time=  6.00000E+00 Dt=  5.00000E-02 [y] snes_conv_reason:    3
  newton =   1 [     139] linear =   138 [     18577] cuts =  0 [   0]
  --> max chng: dpmx=   1.7760E+00 dtmpmx=   5.7917E-02

== TH FLOW =====================================================================
 Step    133 Time=  6.05000E+00 Dt=  5.00000E-02 [y] snes_conv_reason:    3
  newton =   1 [     140] linear =   137 [     18714] cuts =  0 [   0]
  --> max chng: dpmx=   1.7757E+00 dtmpmx=   5.7521E-02

== TH FLOW =====================================================================
 Step    134 Time=  6.10000E+00 Dt=  5.00000E-02 [y] snes_conv_reason:    3
  newton =   1 [     141] linear =   138 [     18852] cuts =  0 [   0]
  --> max chng: dpmx=   1.7763E+00 dtmpmx=   5.7084E-02

== TH FLOW =====================================================================
 Step    135 Time=  6.15000E+00 Dt=  5.00000E-02 [y] snes_conv_reason:    3
  newton =   1 [     142] linear =   137 [     18989] cuts =  0 [   0]
  --> max chng: dpmx=   1.7763E+00 dtmpmx=   5.6836E-02

== TH FLOW =====================================================================
 Step    136 Time=  6.20000E+00 Dt=  5.00000E-02 [y] snes_conv_reason:    3
  newton =   1 [     143] linear =   134 [     19123] cuts =  0 [   0]
  --> max chng: dpmx=   1.7764E+00 dtmpmx=   5.6679E-02

== TH FLOW =====================================================================
 Step    137 Time=  6.25000E+00 Dt=  5.00000E-02 [y] snes_conv_reason:    3
  newton =   1 [     144] linear =   131 [     19254] cuts =  0 [   0]
  --> max chng: dpmx=   1.7760E+00 dtmpmx=   5.6476E-02

== TH FLOW =====================================================================
 Step    138 Time=  6.30000E+00 Dt=  5.00000E-02 [y] snes_conv_reason:    3
  newton =   1 [     145] linear =   132 [     19386] cuts =  0 [   0]
  --> max chng: dpmx=   1.7754E+00 dtmpmx=   5.6273E-02

== TH FLOW =====================================================================
 Step    139 Time=  6.35000E+00 Dt=  5.00000E-02 [y] snes_conv_reason:    3
  newton =   1 [     146] linear =   131 [     19517] cuts =  0 [   0]
  --> max chng: dpmx=   1.7746E+00 dtmpmx=   5.6041E-02

== TH FLOW =====================================================================
 Step    140 Time=  6.40000E+00 Dt=  5.00000E-02 [y] snes_conv_reason:    3
  newton =   1 [     147] linear =   138 [     19655] cuts =  0 [   0]
  --> max chng: dpmx=   1.7745E+00 dtmpmx=   5.5766E-02

== TH FLOW =====================================================================
 Step    141 Time=  6.45000E+00 Dt=  5.00000E-02 [y] snes_conv_reason:    3
  newton =   1 [     148] linear =   132 [     19787] cuts =  0 [   0]
  --> max chng: dpmx=   1.7750E+00 dtmpmx=   5.5451E-02

== TH FLOW =====================================================================
 Step    142 Time=  6.50000E+00 Dt=  5.00000E-02 [y] snes_conv_reason:    3
  newton =   1 [     149] linear =   134 [     19921] cuts =  0 [   0]
  --> max chng: dpmx=   1.7751E+00 dtmpmx=   5.5096E-02

== TH FLOW =====================================================================
 Step    143 Time=  6.55000E+00 Dt=  5.00000E-02 [y] snes_conv_reason:    3
  newton =   1 [     150] linear =   130 [     20051] cuts =  0 [   0]
  --> max chng: dpmx=   1.7753E+00 dtmpmx=   5.4704E-02

== TH FLOW =====================================================================
 Step    144 Time=  6.60000E+00 Dt=  5.00000E-02 [y] snes_conv_reason:    3
  newton =   1 [     151] linear =   131 [     20182] cuts =  0 [   0]
  --> max chng: dpmx=   1.7748E+00 dtmpmx=   5.4557E-02

== TH FLOW =====================================================================
 Step    145 Time=  6.65000E+00 Dt=  5.00000E-02 [y] snes_conv_reason:    3
  newton =   1 [     152] linear =   131 [     20313] cuts =  0 [   0]
  --> max chng: dpmx=   1.7739E+00 dtmpmx=   5.4413E-02

== TH FLOW =====================================================================
 Step    146 Time=  6.70000E+00 Dt=  5.00000E-02 [y] snes_conv_reason:    3
  newton =   1 [     153] linear =   134 [     20447] cuts =  0 [   0]
  --> max chng: dpmx=   1.7730E+00 dtmpmx=   5.4230E-02

== TH FLOW =====================================================================
 Step    147 Time=  6.75000E+00 Dt=  5.00000E-02 [y] snes_conv_reason:    3
  newton =   1 [     154] linear =   134 [     20581] cuts =  0 [   0]
  --> max chng: dpmx=   1.7738E+00 dtmpmx=   5.4017E-02

== TH FLOW =====================================================================
 Step    148 Time=  6.80000E+00 Dt=  5.00000E-02 [y] snes_conv_reason:    3
  newton =   1 [     155] linear =   135 [     20716] cuts =  0 [   0]
  --> max chng: dpmx=   1.7737E+00 dtmpmx=   5.3806E-02

== TH FLOW =====================================================================
 Step    149 Time=  6.85000E+00 Dt=  5.00000E-02 [y] snes_conv_reason:    3
  newton =   1 [     156] linear =   135 [     20851] cuts =  0 [   0]
  --> max chng: dpmx=   1.7738E+00 dtmpmx=   5.3557E-02

== TH FLOW =====================================================================
 Step    150 Time=  6.90000E+00 Dt=  5.00000E-02 [y] snes_conv_reason:    3
  newton =   1 [     157] linear =   132 [     20983] cuts =  0 [   0]
  --> max chng: dpmx=   1.7732E+00 dtmpmx=   5.3272E-02

== TH FLOW =====================================================================
 Step    151 Time=  6.95000E+00 Dt=  5.00000E-02 [y] snes_conv_reason:    3
  newton =   1 [     158] linear =   139 [     21122] cuts =  0 [   0]
  --> max chng: dpmx=   1.7733E+00 dtmpmx=   5.2951E-02

== TH FLOW =====================================================================
 Step    152 Time=  7.00000E+00 Dt=  5.00000E-02 [y] snes_conv_reason:    3
  newton =   1 [     159] linear =   137 [     21259] cuts =  0 [   0]
  --> max chng: dpmx=   1.7725E+00 dtmpmx=   5.2618E-02

== TH FLOW =====================================================================
 Step    153 Time=  7.05000E+00 Dt=  5.00000E-02 [y] snes_conv_reason:    3
  newton =   1 [     160] linear =   132 [     21391] cuts =  0 [   0]
  --> max chng: dpmx=   1.7717E+00 dtmpmx=   5.2524E-02

== TH FLOW =====================================================================
 Step    154 Time=  7.10000E+00 Dt=  5.00000E-02 [y] snes_conv_reason:    3
  newton =   1 [     161] linear =   136 [     21527] cuts =  0 [   0]
  --> max chng: dpmx=   1.7722E+00 dtmpmx=   5.2393E-02

== TH FLOW =====================================================================
 Step    155 Time=  7.15000E+00 Dt=  5.00000E-02 [y] snes_conv_reason:    3
  newton =   1 [     162] linear =   134 [     21661] cuts =  0 [   0]
  --> max chng: dpmx=   1.7721E+00 dtmpmx=   5.2226E-02

== TH FLOW =====================================================================
 Step    156 Time=  7.20000E+00 Dt=  5.00000E-02 [y] snes_conv_reason:    3
  newton =   1 [     163] linear =   132 [     21793] cuts =  0 [   0]
  --> max chng: dpmx=   1.7719E+00 dtmpmx=   5.2024E-02

== TH FLOW =====================================================================
 Step    157 Time=  7.25000E+00 Dt=  5.00000E-02 [y] snes_conv_reason:    3
  newton =   1 [     164] linear =   136 [     21929] cuts =  0 [   0]
  --> max chng: dpmx=   1.7722E+00 dtmpmx=   5.1814E-02

== TH FLOW =====================================================================
 Step    158 Time=  7.30000E+00 Dt=  5.00000E-02 [y] snes_conv_reason:    3
  newton =   1 [     165] linear =   134 [     22063] cuts =  0 [   0]
  --> max chng: dpmx=   1.7711E+00 dtmpmx=   5.1587E-02

== TH FLOW =====================================================================
 Step    159 Time=  7.35000E+00 Dt=  5.00000E-02 [y] snes_conv_reason:    3
  newton =   1 [     166] linear =   137 [     22200] cuts =  0 [   0]
  --> max chng: dpmx=   1.7710E+00 dtmpmx=   5.1328E-02

== TH FLOW =====================================================================
 Step    160 Time=  7.40000E+00 Dt=  5.00000E-02 [y] snes_conv_reason:    3
  newton =   1 [     167] linear =   136 [     22336] cuts =  0 [   0]
  --> max chng: dpmx=   1.7701E+00 dtmpmx=   5.1037E-02

== TH FLOW =====================================================================
 Step    161 Time=  7.45000E+00 Dt=  5.00000E-02 [y] snes_conv_reason:    3
  newton =   1 [     168] linear =   137 [     22473] cuts =  0 [   0]
  --> max chng: dpmx=   1.7704E+00 dtmpmx=   5.0783E-02

== TH FLOW =====================================================================
 Step    162 Time=  7.50000E+00 Dt=  5.00000E-02 [y] snes_conv_reason:    3
  newton =   1 [     169] linear =   136 [     22609] cuts =  0 [   0]
  --> max chng: dpmx=   1.7707E+00 dtmpmx=   5.0696E-02

== TH FLOW =====================================================================
 Step    163 Time=  7.55000E+00 Dt=  5.00000E-02 [y] snes_conv_reason:    3
  newton =   1 [     170] linear =   135 [     22744] cuts =  0 [   0]
  --> max chng: dpmx=   1.7703E+00 dtmpmx=   5.0576E-02

== TH FLOW =====================================================================
 Step    164 Time=  7.60000E+00 Dt=  5.00000E-02 [y] snes_conv_reason:    3
  newton =   1 [     171] linear =   135 [     22879] cuts =  0 [   0]
  --> max chng: dpmx=   1.7700E+00 dtmpmx=   5.0423E-02

== TH FLOW =====================================================================
 Step    165 Time=  7.65000E+00 Dt=  5.00000E-02 [y] snes_conv_reason:    3
  newton =   1 [     172] linear =   132 [     23011] cuts =  0 [   0]
  --> max chng: dpmx=   1.7696E+00 dtmpmx=   5.0239E-02

== TH FLOW =====================================================================
 Step    166 Time=  7.70000E+00 Dt=  5.00000E-02 [y] snes_conv_reason:    3
  newton =   1 [     173] linear =   140 [     23151] cuts =  0 [   0]
  --> max chng: dpmx=   1.7688E+00 dtmpmx=   5.0025E-02

== TH FLOW =====================================================================
 Step    167 Time=  7.75000E+00 Dt=  5.00000E-02 [y] snes_conv_reason:    3
  newton =   1 [     174] linear =   138 [     23289] cuts =  0 [   0]
  --> max chng: dpmx=   1.7685E+00 dtmpmx=   4.9818E-02

== TH FLOW =====================================================================
 Step    168 Time=  7.80000E+00 Dt=  5.00000E-02 [y] snes_conv_reason:    3
  newton =   1 [     175] linear =   136 [     23425] cuts =  0 [   0]
  --> max chng: dpmx=   1.7687E+00 dtmpmx=   4.9580E-02

== TH FLOW =====================================================================
 Step    169 Time=  7.85000E+00 Dt=  5.00000E-02 [y] snes_conv_reason:    3
  newton =   1 [     176] linear =   137 [     23562] cuts =  0 [   0]
  --> max chng: dpmx=   1.7686E+00 dtmpmx=   4.9315E-02

== TH FLOW =====================================================================
 Step    170 Time=  7.90000E+00 Dt=  5.00000E-02 [y] snes_conv_reason:    3
  newton =   1 [     177] linear =   134 [     23696] cuts =  0 [   0]
  --> max chng: dpmx=   1.7683E+00 dtmpmx=   4.9123E-02

== TH FLOW =====================================================================
 Step    171 Time=  7.95000E+00 Dt=  5.00000E-02 [y] snes_conv_reason:    3
  newton =   1 [     178] linear =   137 [     23833] cuts =  0 [   0]
  --> max chng: dpmx=   1.7682E+00 dtmpmx=   4.9042E-02

== TH FLOW =====================================================================
 Step    172 Time=  8.00000E+00 Dt=  5.00000E-02 [y] snes_conv_reason:    3
  newton =   1 [     179] linear =   137 [     23970] cuts =  0 [   0]
  --> max chng: dpmx=   1.7676E+00 dtmpmx=   4.8931E-02

== TH FLOW =====================================================================
 Step    173 Time=  8.05000E+00 Dt=  5.00000E-02 [y] snes_conv_reason:    3
  newton =   1 [     180] linear =   137 [     24107] cuts =  0 [   0]
  --> max chng: dpmx=   1.7668E+00 dtmpmx=   4.8791E-02

== TH FLOW =====================================================================
 Step    174 Time=  8.10000E+00 Dt=  5.00000E-02 [y] snes_conv_reason:    3
  newton =   1 [     181] linear =   123 [     24230] cuts =  0 [   0]
  --> max chng: dpmx=   1.7664E+00 dtmpmx=   4.8622E-02

== TH FLOW =====================================================================
 Step    175 Time=  8.15000E+00 Dt=  5.00000E-02 [y] snes_conv_reason:    3
  newton =   1 [     182] linear =   134 [     24364] cuts =  0 [   0]
  --> max chng: dpmx=   1.7667E+00 dtmpmx=   4.8425E-02

== TH FLOW =====================================================================
 Step    176 Time=  8.20000E+00 Dt=  5.00000E-02 [y] snes_conv_reason:    3
  newton =   1 [     183] linear =   130 [     24494] cuts =  0 [   0]
  --> max chng: dpmx=   1.7663E+00 dtmpmx=   4.8216E-02

== TH FLOW =====================================================================
 Step    177 Time=  8.25000E+00 Dt=  5.00000E-02 [y] snes_conv_reason:    3
  newton =   1 [     184] linear =   136 [     24630] cuts =  0 [   0]
  --> max chng: dpmx=   1.7662E+00 dtmpmx=   4.7998E-02

== TH FLOW =====================================================================
 Step    178 Time=  8.30000E+00 Dt=  5.00000E-02 [y] snes_conv_reason:    3
  newton =   1 [     185] linear =   138 [     24768] cuts =  0 [   0]
  --> max chng: dpmx=   1.7660E+00 dtmpmx=   4.7754E-02

== TH FLOW =====================================================================
 Step    179 Time=  8.35000E+00 Dt=  5.00000E-02 [y] snes_conv_reason:    3
  newton =   1 [     186] linear =   138 [     24906] cuts =  0 [   0]
  --> max chng: dpmx=   1.7654E+00 dtmpmx=   4.7611E-02

== TH FLOW =====================================================================
 Step    180 Time=  8.40000E+00 Dt=  5.00000E-02 [y] snes_conv_reason:    3
  newton =   1 [     187] linear =   135 [     25041] cuts =  0 [   0]
  --> max chng: dpmx=   1.7645E+00 dtmpmx=   4.7536E-02

== TH FLOW =====================================================================
 Step    181 Time=  8.45000E+00 Dt=  5.00000E-02 [y] snes_conv_reason:    3
  newton =   1 [     188] linear =   129 [     25170] cuts =  0 [   0]
  --> max chng: dpmx=   1.7643E+00 dtmpmx=   4.7433E-02

== TH FLOW =====================================================================
 Step    182 Time=  8.50000E+00 Dt=  5.00000E-02 [y] snes_conv_reason:    3
  newton =   1 [     189] linear =   135 [     25305] cuts =  0 [   0]
  --> max chng: dpmx=   1.7644E+00 dtmpmx=   4.7304E-02

== TH FLOW =====================================================================
 Step    183 Time=  8.55000E+00 Dt=  5.00000E-02 [y] snes_conv_reason:    3
  newton =   1 [     190] linear =   135 [     25440] cuts =  0 [   0]
  --> max chng: dpmx=   1.7640E+00 dtmpmx=   4.7148E-02

== TH FLOW =====================================================================
 Step    184 Time=  8.60000E+00 Dt=  5.00000E-02 [y] snes_conv_reason:    3
  newton =   1 [     191] linear =   134 [     25574] cuts =  0 [   0]
  --> max chng: dpmx=   1.7640E+00 dtmpmx=   4.6967E-02

== TH FLOW =====================================================================
 Step    185 Time=  8.65000E+00 Dt=  5.00000E-02 [y] snes_conv_reason:    3
  newton =   1 [     192] linear =   136 [     25710] cuts =  0 [   0]
  --> max chng: dpmx=   1.7636E+00 dtmpmx=   4.6761E-02

== TH FLOW =====================================================================
 Step    186 Time=  8.70000E+00 Dt=  5.00000E-02 [y] snes_conv_reason:    3
  newton =   1 [     193] linear =   136 [     25846] cuts =  0 [   0]
  --> max chng: dpmx=   1.7629E+00 dtmpmx=   4.6556E-02

== TH FLOW =====================================================================
 Step    187 Time=  8.75000E+00 Dt=  5.00000E-02 [y] snes_conv_reason:    3
  newton =   1 [     194] linear =   139 [     25985] cuts =  0 [   0]
  --> max chng: dpmx=   1.7623E+00 dtmpmx=   4.6331E-02

== TH FLOW =====================================================================
 Step    188 Time=  8.80000E+00 Dt=  5.00000E-02 [y] snes_conv_reason:    3
  newton =   1 [     195] linear =   126 [     26111] cuts =  0 [   0]
  --> max chng: dpmx=   1.7617E+00 dtmpmx=   4.6227E-02

== TH FLOW =====================================================================
 Step    189 Time=  8.85000E+00 Dt=  5.00000E-02 [y] snes_conv_reason:    3
  newton =   1 [     196] linear =   131 [     26242] cuts =  0 [   0]
  --> max chng: dpmx=   1.7619E+00 dtmpmx=   4.6157E-02

== TH FLOW =====================================================================
 Step    190 Time=  8.90000E+00 Dt=  5.00000E-02 [y] snes_conv_reason:    3
  newton =   1 [     197] linear =   134 [     26376] cuts =  0 [   0]
  --> max chng: dpmx=   1.7615E+00 dtmpmx=   4.6062E-02

== TH FLOW =====================================================================
 Step    191 Time=  8.95000E+00 Dt=  5.00000E-02 [y] snes_conv_reason:    3
  newton =   1 [     198] linear =   120 [     26496] cuts =  0 [   0]
  --> max chng: dpmx=   1.7616E+00 dtmpmx=   4.5942E-02

== TH FLOW =====================================================================
 Step    192 Time=  9.00000E+00 Dt=  5.00000E-02 [y] snes_conv_reason:    3
  newton =   1 [     199] linear =   125 [     26621] cuts =  0 [   0]
  --> max chng: dpmx=   1.7609E+00 dtmpmx=   4.5798E-02

== TH FLOW =====================================================================
 Step    193 Time=  9.05000E+00 Dt=  5.00000E-02 [y] snes_conv_reason:    3
  newton =   1 [     200] linear =   124 [     26745] cuts =  0 [   0]
  --> max chng: dpmx=   1.7604E+00 dtmpmx=   4.5630E-02

== TH FLOW =====================================================================
 Step    194 Time=  9.10000E+00 Dt=  5.00000E-02 [y] snes_conv_reason:    3
  newton =   1 [     201] linear =   134 [     26879] cuts =  0 [   0]
  --> max chng: dpmx=   1.7595E+00 dtmpmx=   4.5440E-02

== TH FLOW =====================================================================
 Step    195 Time=  9.15000E+00 Dt=  5.00000E-02 [y] snes_conv_reason:    3
  newton =   1 [     202] linear =   136 [     27015] cuts =  0 [   0]
  --> max chng: dpmx=   1.7592E+00 dtmpmx=   4.5234E-02

== TH FLOW =====================================================================
 Step    196 Time=  9.20000E+00 Dt=  5.00000E-02 [y] snes_conv_reason:    3
  newton =   1 [     203] linear =   136 [     27151] cuts =  0 [   0]
  --> max chng: dpmx=   1.7591E+00 dtmpmx=   4.5026E-02

== TH FLOW =====================================================================
 Step    197 Time=  9.25000E+00 Dt=  5.00000E-02 [y] snes_conv_reason:    3
  newton =   1 [     204] linear =   136 [     27287] cuts =  0 [   0]
  --> max chng: dpmx=   1.7590E+00 dtmpmx=   4.4954E-02

== TH FLOW =====================================================================
 Step    198 Time=  9.30000E+00 Dt=  5.00000E-02 [y] snes_conv_reason:    3
  newton =   1 [     205] linear =   135 [     27422] cuts =  0 [   0]
  --> max chng: dpmx=   1.7586E+00 dtmpmx=   4.4888E-02

== TH FLOW =====================================================================
 Step    199 Time=  9.35000E+00 Dt=  5.00000E-02 [y] snes_conv_reason:    3
  newton =   1 [     206] linear =   136 [     27558] cuts =  0 [   0]
  --> max chng: dpmx=   1.7583E+00 dtmpmx=   4.4800E-02

== TH FLOW =====================================================================
 Step    200 Time=  9.40000E+00 Dt=  5.00000E-02 [y] snes_conv_reason:    3
  newton =   1 [     207] linear =   136 [     27694] cuts =  0 [   0]
  --> max chng: dpmx=   1.7577E+00 dtmpmx=   4.4688E-02

== TH FLOW =====================================================================
 Step    201 Time=  9.45000E+00 Dt=  5.00000E-02 [y] snes_conv_reason:    3
  newton =   1 [     208] linear =   134 [     27828] cuts =  0 [   0]
  --> max chng: dpmx=   1.7569E+00 dtmpmx=   4.4555E-02

== TH FLOW =====================================================================
 Step    202 Time=  9.50000E+00 Dt=  5.00000E-02 [y] snes_conv_reason:    3
  newton =   1 [     209] linear =   135 [     27963] cuts =  0 [   0]
  --> max chng: dpmx=   1.7564E+00 dtmpmx=   4.4399E-02

== TH FLOW =====================================================================
 Step    203 Time=  9.55000E+00 Dt=  5.00000E-02 [y] snes_conv_reason:    3
  newton =   1 [     210] linear =   135 [     28098] cuts =  0 [   0]
  --> max chng: dpmx=   1.7563E+00 dtmpmx=   4.4223E-02

== TH FLOW =====================================================================
 Step    204 Time=  9.60000E+00 Dt=  5.00000E-02 [y] snes_conv_reason:    3
  newton =   1 [     211] linear =   136 [     28234] cuts =  0 [   0]
  --> max chng: dpmx=   1.7556E+00 dtmpmx=   4.4026E-02

== TH FLOW =====================================================================
 Step    205 Time=  9.65000E+00 Dt=  5.00000E-02 [y] snes_conv_reason:    3
  newton =   1 [     212] linear =   135 [     28369] cuts =  0 [   0]
  --> max chng: dpmx=   1.7558E+00 dtmpmx=   4.3824E-02

== TH FLOW =====================================================================
 Step    206 Time=  9.70000E+00 Dt=  5.00000E-02 [y] snes_conv_reason:    3
  newton =   1 [     213] linear =   133 [     28502] cuts =  0 [   0]
  --> max chng: dpmx=   1.7556E+00 dtmpmx=   4.3778E-02

== TH FLOW =====================================================================
 Step    207 Time=  9.75000E+00 Dt=  5.00000E-02 [y] snes_conv_reason:    3
  newton =   1 [     214] linear =   137 [     28639] cuts =  0 [   0]
  --> max chng: dpmx=   1.7547E+00 dtmpmx=   4.3716E-02

== TH FLOW =====================================================================
 Step    208 Time=  9.80000E+00 Dt=  5.00000E-02 [y] snes_conv_reason:    3
  newton =   1 [     215] linear =   138 [     28777] cuts =  0 [   0]
  --> max chng: dpmx=   1.7540E+00 dtmpmx=   4.3634E-02

== TH FLOW =====================================================================
 Step    209 Time=  9.85000E+00 Dt=  5.00000E-02 [y] snes_conv_reason:    3
  newton =   1 [     216] linear =   134 [     28911] cuts =  0 [   0]
  --> max chng: dpmx=   1.7533E+00 dtmpmx=   4.3530E-02

== TH FLOW =====================================================================
 Step    210 Time=  9.90000E+00 Dt=  5.00000E-02 [y] snes_conv_reason:    3
  newton =   1 [     217] linear =   133 [     29044] cuts =  0 [   0]
  --> max chng: dpmx=   1.7534E+00 dtmpmx=   4.3405E-02

== TH FLOW =====================================================================
 Step    211 Time=  9.95000E+00 Dt=  5.00000E-02 [y] snes_conv_reason:    3
  newton =   1 [     218] linear =   132 [     29176] cuts =  0 [   0]
  --> max chng: dpmx=   1.7526E+00 dtmpmx=   4.3260E-02

== TH FLOW =====================================================================
 Step    212 Time=  1.00000E+01 Dt=  5.00000E-02 [y] snes_conv_reason:    3
  newton =   1 [     219] linear =   134 [     29310] cuts =  0 [   0]
  --> max chng: dpmx=   1.7526E+00 dtmpmx=   4.3096E-02

== TH FLOW =====================================================================
 Step    213 Time=  1.00500E+01 Dt=  5.00000E-02 [y] snes_conv_reason:    3
  newton =   1 [     220] linear =   138 [     29448] cuts =  0 [   0]
  --> max chng: dpmx=   1.7523E+00 dtmpmx=   4.2913E-02

== TH FLOW =====================================================================
 Step    214 Time=  1.01000E+01 Dt=  5.00000E-02 [y] snes_conv_reason:    3
  newton =   1 [     221] linear =   138 [     29586] cuts =  0 [   0]
  --> max chng: dpmx=   1.7516E+00 dtmpmx=   4.2725E-02

== TH FLOW =====================================================================
 Step    215 Time=  1.01500E+01 Dt=  5.00000E-02 [y] snes_conv_reason:    3
  newton =   1 [     222] linear =   135 [     29721] cuts =  0 [   0]
  --> max chng: dpmx=   1.7511E+00 dtmpmx=   4.2687E-02

== TH FLOW =====================================================================
 Step    216 Time=  1.02000E+01 Dt=  5.00000E-02 [y] snes_conv_reason:    3
  newton =   1 [     223] linear =   137 [     29858] cuts =  0 [   0]
  --> max chng: dpmx=   1.7498E+00 dtmpmx=   4.2629E-02

== TH FLOW =====================================================================
 Step    217 Time=  1.02500E+01 Dt=  5.00000E-02 [y] snes_conv_reason:    3
  newton =   1 [     224] linear =   137 [     29995] cuts =  0 [   0]
  --> max chng: dpmx=   1.7499E+00 dtmpmx=   4.2552E-02

== TH FLOW =====================================================================
 Step    218 Time=  1.03000E+01 Dt=  5.00000E-02 [y] snes_conv_reason:    3
  newton =   1 [     225] linear =   137 [     30132] cuts =  0 [   0]
  --> max chng: dpmx=   1.7494E+00 dtmpmx=   4.2454E-02

== TH FLOW =====================================================================
 Step    219 Time=  1.03500E+01 Dt=  5.00000E-02 [y] snes_conv_reason:    3
  newton =   1 [     226] linear =   137 [     30269] cuts =  0 [   0]
  --> max chng: dpmx=   1.7497E+00 dtmpmx=   4.2338E-02

== TH FLOW =====================================================================
 Step    220 Time=  1.04000E+01 Dt=  5.00000E-02 [y] snes_conv_reason:    3
  newton =   1 [     227] linear =   137 [     30406] cuts =  0 [   0]
  --> max chng: dpmx=   1.7487E+00 dtmpmx=   4.2203E-02

== TH FLOW =====================================================================
 Step    221 Time=  1.04500E+01 Dt=  5.00000E-02 [y] snes_conv_reason:    3
  newton =   1 [     228] linear =   137 [     30543] cuts =  0 [   0]
  --> max chng: dpmx=   1.7485E+00 dtmpmx=   4.2049E-02

== TH FLOW =====================================================================
 Step    222 Time=  1.05000E+01 Dt=  5.00000E-02 [y] snes_conv_reason:    3
  newton =   1 [     229] linear =   138 [     30681] cuts =  0 [   0]
  --> max chng: dpmx=   1.7473E+00 dtmpmx=   4.1878E-02

== TH FLOW =====================================================================
 Step    223 Time=  1.05500E+01 Dt=  5.00000E-02 [y] snes_conv_reason:    3
  newton =   1 [     230] linear =   137 [     30818] cuts =  0 [   0]
  --> max chng: dpmx=   1.7471E+00 dtmpmx=   4.1708E-02

== TH FLOW =====================================================================
 Step    224 Time=  1.06000E+01 Dt=  5.00000E-02 [y] snes_conv_reason:    3
  newton =   1 [     231] linear =   140 [     30958] cuts =  0 [   0]
  --> max chng: dpmx=   1.7462E+00 dtmpmx=   4.1672E-02

== TH FLOW =====================================================================
 Step    225 Time=  1.06500E+01 Dt=  5.00000E-02 [y] snes_conv_reason:    3
  newton =   1 [     232] linear =   139 [     31097] cuts =  0 [   0]
  --> max chng: dpmx=   1.7462E+00 dtmpmx=   4.1618E-02

== TH FLOW =====================================================================
 Step    226 Time=  1.07000E+01 Dt=  5.00000E-02 [y] snes_conv_reason:    3
  newton =   1 [     233] linear =   137 [     31234] cuts =  0 [   0]
  --> max chng: dpmx=   1.7461E+00 dtmpmx=   4.1545E-02

== TH FLOW =====================================================================
 Step    227 Time=  1.07500E+01 Dt=  5.00000E-02 [y] snes_conv_reason:    3
  newton =   1 [     234] linear =   140 [     31374] cuts =  0 [   0]
  --> max chng: dpmx=   1.7451E+00 dtmpmx=   4.1453E-02

== TH FLOW =====================================================================
 Step    228 Time=  1.08000E+01 Dt=  5.00000E-02 [y] snes_conv_reason:    3
  newton =   1 [     235] linear =   135 [     31509] cuts =  0 [   0]
  --> max chng: dpmx=   1.7452E+00 dtmpmx=   4.1344E-02

== TH FLOW =====================================================================
 Step    229 Time=  1.08500E+01 Dt=  5.00000E-02 [y] snes_conv_reason:    3
  newton =   1 [     236] linear =   134 [     31643] cuts =  0 [   0]
  --> max chng: dpmx=   1.7440E+00 dtmpmx=   4.1217E-02

== TH FLOW =====================================================================
 Step    230 Time=  1.09000E+01 Dt=  5.00000E-02 [y] snes_conv_reason:    3
  newton =   1 [     237] linear =   134 [     31777] cuts =  0 [   0]
  --> max chng: dpmx=   1.7432E+00 dtmpmx=   4.1073E-02

== TH FLOW =====================================================================
 Step    231 Time=  1.09500E+01 Dt=  5.00000E-02 [y] snes_conv_reason:    3
  newton =   1 [     238] linear =   139 [     31916] cuts =  0 [   0]
  --> max chng: dpmx=   1.7429E+00 dtmpmx=   4.0913E-02

== TH FLOW =====================================================================
 Step    232 Time=  1.10000E+01 Dt=  5.00000E-02 [y] snes_conv_reason:    3
  newton =   1 [     239] linear =   137 [     32053] cuts =  0 [   0]
  --> max chng: dpmx=   1.7426E+00 dtmpmx=   4.0758E-02

== TH FLOW =====================================================================
 Step    233 Time=  1.10500E+01 Dt=  5.00000E-02 [y] snes_conv_reason:    3
  newton =   1 [     240] linear =   127 [     32180] cuts =  0 [   0]
  --> max chng: dpmx=   1.7420E+00 dtmpmx=   4.0724E-02

== TH FLOW =====================================================================
 Step    234 Time=  1.11000E+01 Dt=  5.00000E-02 [y] snes_conv_reason:    3
  newton =   1 [     241] linear =   131 [     32311] cuts =  0 [   0]
  --> max chng: dpmx=   1.7419E+00 dtmpmx=   4.0673E-02

== TH FLOW =====================================================================
 Step    235 Time=  1.11500E+01 Dt=  5.00000E-02 [y] snes_conv_reason:    3
  newton =   1 [     242] linear =   132 [     32443] cuts =  0 [   0]
  --> max chng: dpmx=   1.7412E+00 dtmpmx=   4.0604E-02

== TH FLOW =====================================================================
 Step    236 Time=  1.12000E+01 Dt=  5.00000E-02 [y] snes_conv_reason:    3
  newton =   1 [     243] linear =   132 [     32575] cuts =  0 [   0]
  --> max chng: dpmx=   1.7406E+00 dtmpmx=   4.0518E-02

== TH FLOW =====================================================================
 Step    237 Time=  1.12500E+01 Dt=  5.00000E-02 [y] snes_conv_reason:    3
  newton =   1 [     244] linear =   133 [     32708] cuts =  0 [   0]
  --> max chng: dpmx=   1.7398E+00 dtmpmx=   4.0415E-02

== TH FLOW =====================================================================
 Step    238 Time=  1.13000E+01 Dt=  5.00000E-02 [y] snes_conv_reason:    3
  newton =   1 [     245] linear =   132 [     32840] cuts =  0 [   0]
  --> max chng: dpmx=   1.7391E+00 dtmpmx=   4.0296E-02

== TH FLOW =====================================================================
 Step    239 Time=  1.13500E+01 Dt=  5.00000E-02 [y] snes_conv_reason:    3
  newton =   1 [     246] linear =   134 [     32974] cuts =  0 [   0]
  --> max chng: dpmx=   1.7388E+00 dtmpmx=   4.0160E-02

== TH FLOW =====================================================================
 Step    240 Time=  1.14000E+01 Dt=  5.00000E-02 [y] snes_conv_reason:    3
  newton =   1 [     247] linear =   136 [     33110] cuts =  0 [   0]
  --> max chng: dpmx=   1.7381E+00 dtmpmx=   4.0009E-02

== TH FLOW =====================================================================
 Step    241 Time=  1.14500E+01 Dt=  5.00000E-02 [y] snes_conv_reason:    3
  newton =   1 [     248] linear =   135 [     33245] cuts =  0 [   0]
  --> max chng: dpmx=   1.7383E+00 dtmpmx=   3.9868E-02

== TH FLOW =====================================================================
 Step    242 Time=  1.15000E+01 Dt=  5.00000E-02 [y] snes_conv_reason:    3
  newton =   1 [     249] linear =   131 [     33376] cuts =  0 [   0]
  --> max chng: dpmx=   1.7370E+00 dtmpmx=   3.9836E-02

== TH FLOW =====================================================================
 Step    243 Time=  1.15500E+01 Dt=  5.00000E-02 [y] snes_conv_reason:    3
  newton =   1 [     250] linear =   137 [     33513] cuts =  0 [   0]
  --> max chng: dpmx=   1.7371E+00 dtmpmx=   3.9787E-02

== TH FLOW =====================================================================
 Step    244 Time=  1.16000E+01 Dt=  5.00000E-02 [y] snes_conv_reason:    3
  newton =   1 [     251] linear =   137 [     33650] cuts =  0 [   0]
  --> max chng: dpmx=   1.7357E+00 dtmpmx=   3.9722E-02

== TH FLOW =====================================================================
 Step    245 Time=  1.16500E+01 Dt=  5.00000E-02 [y] snes_conv_reason:    3
  newton =   1 [     252] linear =   133 [     33783] cuts =  0 [   0]
  --> max chng: dpmx=   1.7354E+00 dtmpmx=   3.9641E-02

== TH FLOW =====================================================================
 Step    246 Time=  1.17000E+01 Dt=  5.00000E-02 [y] snes_conv_reason:    3
  newton =   1 [     253] linear =   136 [     33919] cuts =  0 [   0]
  --> max chng: dpmx=   1.7347E+00 dtmpmx=   3.9544E-02

== TH FLOW =====================================================================
 Step    247 Time=  1.17500E+01 Dt=  5.00000E-02 [y] snes_conv_reason:    3
  newton =   1 [     254] linear =   134 [     34053] cuts =  0 [   0]
  --> max chng: dpmx=   1.7344E+00 dtmpmx=   3.9431E-02

== TH FLOW =====================================================================
 Step    248 Time=  1.18000E+01 Dt=  5.00000E-02 [y] snes_conv_reason:    3
  newton =   1 [     255] linear =   133 [     34186] cuts =  0 [   0]
  --> max chng: dpmx=   1.7343E+00 dtmpmx=   3.9304E-02

== TH FLOW =====================================================================
 Step    249 Time=  1.18500E+01 Dt=  5.00000E-02 [y] snes_conv_reason:    3
  newton =   1 [     256] linear =   137 [     34323] cuts =  0 [   0]
  --> max chng: dpmx=   1.7332E+00 dtmpmx=   3.9161E-02

== TH FLOW =====================================================================
 Step    250 Time=  1.19000E+01 Dt=  5.00000E-02 [y] snes_conv_reason:    3
  newton =   1 [     257] linear =   137 [     34460] cuts =  0 [   0]
  --> max chng: dpmx=   1.7328E+00 dtmpmx=   3.9032E-02

== TH FLOW =====================================================================
 Step    251 Time=  1.19500E+01 Dt=  5.00000E-02 [y] snes_conv_reason:    3
  newton =   1 [     258] linear =   133 [     34593] cuts =  0 [   0]
  --> max chng: dpmx=   1.7323E+00 dtmpmx=   3.9001E-02

== TH FLOW =====================================================================
 Step    252 Time=  1.20000E+01 Dt=  5.00000E-02 [y] snes_conv_reason:    3
  newton =   1 [     259] linear =   128 [     34721] cuts =  0 [   0]
  --> max chng: dpmx=   1.7307E+00 dtmpmx=   3.8955E-02

== TH FLOW =====================================================================
 Step    253 Time=  1.20500E+01 Dt=  5.00000E-02 [y] snes_conv_reason:    3
  newton =   1 [     260] linear =   136 [     34857] cuts =  0 [   0]
  --> max chng: dpmx=   1.7309E+00 dtmpmx=   3.8893E-02

== TH FLOW =====================================================================
 Step    254 Time=  1.21000E+01 Dt=  5.00000E-02 [y] snes_conv_reason:    3
  newton =   1 [     261] linear =   133 [     34990] cuts =  0 [   0]
  --> max chng: dpmx=   1.7305E+00 dtmpmx=   3.8816E-02

== TH FLOW =====================================================================
 Step    255 Time=  1.21500E+01 Dt=  5.00000E-02 [y] snes_conv_reason:    3
  newton =   1 [     262] linear =   132 [     35122] cuts =  0 [   0]
  --> max chng: dpmx=   1.7299E+00 dtmpmx=   3.8724E-02

== TH FLOW =====================================================================
 Step    256 Time=  1.22000E+01 Dt=  5.00000E-02 [y] snes_conv_reason:    3
  newton =   1 [     263] linear =   133 [     35255] cuts =  0 [   0]
  --> max chng: dpmx=   1.7294E+00 dtmpmx=   3.8618E-02

== TH FLOW =====================================================================
 Step    257 Time=  1.22500E+01 Dt=  5.00000E-02 [y] snes_conv_reason:    3
  newton =   1 [     264] linear =   133 [     35388] cuts =  0 [   0]
  --> max chng: dpmx=   1.7286E+00 dtmpmx=   3.8498E-02

[...]
 Step    493 Time=  2.40500E+01 Dt=  5.00000E-02 [y] snes_conv_reason:    3
  newton =   1 [     500] linear =   136 [     66776] cuts =  0 [   0]
  --> max chng: dpmx=   1.5380E+00 dtmpmx=   2.6492E-02

== TH FLOW =====================================================================
 Step    494 Time=  2.41000E+01 Dt=  5.00000E-02 [y] snes_conv_reason:    3
  newton =   1 [     501] linear =   138 [     66914] cuts =  0 [   0]
  --> max chng: dpmx=   1.5372E+00 dtmpmx=   2.6472E-02

== TH FLOW =====================================================================
 Step    495 Time=  2.41500E+01 Dt=  5.00000E-02 [y] snes_conv_reason:    3
  newton =   1 [     502] linear =   134 [     67048] cuts =  0 [   0]
  --> max chng: dpmx=   1.5359E+00 dtmpmx=   2.6448E-02

== TH FLOW =====================================================================
 Step    496 Time=  2.42000E+01 Dt=  5.00000E-02 [y] snes_conv_reason:    3
  newton =   1 [     503] linear =   132 [     67180] cuts =  0 [   0]
  --> max chng: dpmx=   1.5355E+00 dtmpmx=   2.6418E-02

== TH FLOW =====================================================================
 Step    497 Time=  2.42500E+01 Dt=  5.00000E-02 [y] snes_conv_reason:    3
  newton =   1 [     504] linear =   136 [     67316] cuts =  0 [   0]
  --> max chng: dpmx=   1.5344E+00 dtmpmx=   2.6384E-02

== TH FLOW =====================================================================
 Step    498 Time=  2.43000E+01 Dt=  5.00000E-02 [y] snes_conv_reason:    3
  newton =   1 [     505] linear =   137 [     67453] cuts =  0 [   0]
  --> max chng: dpmx=   1.5335E+00 dtmpmx=   2.6345E-02

== TH FLOW =====================================================================
 Step    499 Time=  2.43500E+01 Dt=  5.00000E-02 [y] snes_conv_reason:    3
  newton =   1 [     506] linear =   116 [     67569] cuts =  0 [   0]
  --> max chng: dpmx=   1.5324E+00 dtmpmx=   2.6300E-02

== TH FLOW =====================================================================
 Step    500 Time=  2.44000E+01 Dt=  5.00000E-02 [y] snes_conv_reason:    3
  newton =   1 [     507] linear =   129 [     67698] cuts =  0 [   0]
  --> max chng: dpmx=   1.5318E+00 dtmpmx=   2.6252E-02

== TH FLOW =====================================================================
 Step    501 Time=  2.44500E+01 Dt=  5.00000E-02 [y] snes_conv_reason:    3
  newton =   1 [     508] linear =   129 [     67827] cuts =  0 [   0]
  --> max chng: dpmx=   1.5305E+00 dtmpmx=   2.6232E-02

== TH FLOW =====================================================================
 Step    502 Time=  2.45000E+01 Dt=  5.00000E-02 [y] snes_conv_reason:    3
  newton =   1 [     509] linear =   133 [     67960] cuts =  0 [   0]
  --> max chng: dpmx=   1.5294E+00 dtmpmx=   2.6218E-02

== TH FLOW =====================================================================
 Step    503 Time=  2.45500E+01 Dt=  5.00000E-02 [y] snes_conv_reason:    3
  newton =   1 [     510] linear =   132 [     68092] cuts =  0 [   0]
  --> max chng: dpmx=   1.5287E+00 dtmpmx=   2.6199E-02

== TH FLOW =====================================================================
 Step    504 Time=  2.46000E+01 Dt=  5.00000E-02 [y] snes_conv_reason:    3
  newton =   1 [     511] linear =   135 [     68227] cuts =  0 [   0]
  --> max chng: dpmx=   1.5276E+00 dtmpmx=   2.6174E-02

== TH FLOW =====================================================================
 Step    505 Time=  2.46500E+01 Dt=  5.00000E-02 [y] snes_conv_reason:    3
  newton =   1 [     512] linear =   134 [     68361] cuts =  0 [   0]
  --> max chng: dpmx=   1.5270E+00 dtmpmx=   2.6145E-02

== TH FLOW =====================================================================
 Step    506 Time=  2.47000E+01 Dt=  5.00000E-02 [y] snes_conv_reason:    3
  newton =   1 [     513] linear =   133 [     68494] cuts =  0 [   0]
  --> max chng: dpmx=   1.5258E+00 dtmpmx=   2.6111E-02

== TH FLOW =====================================================================
 Step    507 Time=  2.47500E+01 Dt=  5.00000E-02 [y] snes_conv_reason:    3
  newton =   1 [     514] linear =   131 [     68625] cuts =  0 [   0]
  --> max chng: dpmx=   1.5250E+00 dtmpmx=   2.6072E-02

== TH FLOW =====================================================================
 Step    508 Time=  2.48000E+01 Dt=  5.00000E-02 [y] snes_conv_reason:    3
  newton =   1 [     515] linear =   131 [     68756] cuts =  0 [   0]
  --> max chng: dpmx=   1.5240E+00 dtmpmx=   2.6029E-02

== TH FLOW =====================================================================
 Step    509 Time=  2.48500E+01 Dt=  5.00000E-02 [y] snes_conv_reason:    3
  newton =   1 [     516] linear =   131 [     68887] cuts =  0 [   0]
  --> max chng: dpmx=   1.5233E+00 dtmpmx=   2.5981E-02

== TH FLOW =====================================================================
 Step    510 Time=  2.49000E+01 Dt=  5.00000E-02 [y] snes_conv_reason:    3
  newton =   1 [     517] linear =   133 [     69020] cuts =  0 [   0]
  --> max chng: dpmx=   1.5217E+00 dtmpmx=   2.5966E-02

== TH FLOW =====================================================================
 Step    511 Time=  2.49500E+01 Dt=  5.00000E-02 [y] snes_conv_reason:    3
  newton =   1 [     518] linear =   135 [     69155] cuts =  0 [   0]
  --> max chng: dpmx=   1.5210E+00 dtmpmx=   2.5951E-02

== TH FLOW =====================================================================
 Step    512 Time=  2.50000E+01 Dt=  5.00000E-02 [y] snes_conv_reason:    3
  newton =   1 [     519] linear =   133 [     69288] cuts =  0 [   0]
  --> max chng: dpmx=   1.5201E+00 dtmpmx=   2.5932E-02

== TH FLOW =====================================================================
 Step    513 Time=  2.50500E+01 Dt=  5.00000E-02 [y] snes_conv_reason:    3
  newton =   1 [     520] linear =   135 [     69423] cuts =  0 [   0]
  --> max chng: dpmx=   1.5192E+00 dtmpmx=   2.5908E-02

== TH FLOW =====================================================================
 Step    514 Time=  2.51000E+01 Dt=  5.00000E-02 [y] snes_conv_reason:    3
  newton =   1 [     521] linear =   129 [     69552] cuts =  0 [   0]
  --> max chng: dpmx=   1.5181E+00 dtmpmx=   2.5879E-02

== TH FLOW =====================================================================
 Step    515 Time=  2.51500E+01 Dt=  5.00000E-02 [y] snes_conv_reason:    3
  newton =   1 [     522] linear =   126 [     69678] cuts =  0 [   0]
  --> max chng: dpmx=   1.5177E+00 dtmpmx=   2.5845E-02

== TH FLOW =====================================================================
 Step    516 Time=  2.52000E+01 Dt=  5.00000E-02 [y] snes_conv_reason:    3
  newton =   1 [     523] linear =   133 [     69811] cuts =  0 [   0]
  --> max chng: dpmx=   1.5165E+00 dtmpmx=   2.5807E-02

== TH FLOW =====================================================================
 Step    517 Time=  2.52500E+01 Dt=  5.00000E-02 [y] snes_conv_reason:    3
  newton =   1 [     524] linear =   118 [     69929] cuts =  0 [   0]
  --> max chng: dpmx=   1.5149E+00 dtmpmx=   2.5765E-02

== TH FLOW =====================================================================
 Step    518 Time=  2.53000E+01 Dt=  5.00000E-02 [y] snes_conv_reason:    3
  newton =   1 [     525] linear =   133 [     70062] cuts =  0 [   0]
  --> max chng: dpmx=   1.5145E+00 dtmpmx=   2.5717E-02

== TH FLOW =====================================================================
 Step    519 Time=  2.53500E+01 Dt=  5.00000E-02 [y] snes_conv_reason:    3
  newton =   1 [     526] linear =   134 [     70196] cuts =  0 [   0]
  --> max chng: dpmx=   1.5131E+00 dtmpmx=   2.5706E-02

== TH FLOW =====================================================================
 Step    520 Time=  2.54000E+01 Dt=  5.00000E-02 [y] snes_conv_reason:    3
  newton =   1 [     527] linear =   135 [     70331] cuts =  0 [   0]
  --> max chng: dpmx=   1.5125E+00 dtmpmx=   2.5692E-02

== TH FLOW =====================================================================
 Step    521 Time=  2.54500E+01 Dt=  5.00000E-02 [y] snes_conv_reason:    3
  newton =   1 [     528] linear =   124 [     70455] cuts =  0 [   0]
  --> max chng: dpmx=   1.5115E+00 dtmpmx=   2.5672E-02

== TH FLOW =====================================================================
 Step    522 Time=  2.55000E+01 Dt=  5.00000E-02 [y] snes_conv_reason:    3
  newton =   1 [     529] linear =   127 [     70582] cuts =  0 [   0]
  --> max chng: dpmx=   1.5110E+00 dtmpmx=   2.5648E-02

== TH FLOW =====================================================================
 Step    523 Time=  2.55500E+01 Dt=  5.00000E-02 [y] snes_conv_reason:    3
  newton =   1 [     530] linear =   134 [     70716] cuts =  0 [   0]
  --> max chng: dpmx=   1.5094E+00 dtmpmx=   2.5620E-02

== TH FLOW =====================================================================
 Step    524 Time=  2.56000E+01 Dt=  5.00000E-02 [y] snes_conv_reason:    3
  newton =   1 [     531] linear =   127 [     70843] cuts =  0 [   0]
  --> max chng: dpmx=   1.5087E+00 dtmpmx=   2.5587E-02

== TH FLOW =====================================================================
 Step    525 Time=  2.56500E+01 Dt=  5.00000E-02 [y] snes_conv_reason:    3
  newton =   1 [     532] linear =   128 [     70971] cuts =  0 [   0]
  --> max chng: dpmx=   1.5076E+00 dtmpmx=   2.5549E-02

== TH FLOW =====================================================================
 Step    526 Time=  2.57000E+01 Dt=  5.00000E-02 [y] snes_conv_reason:    3
  newton =   1 [     533] linear =   137 [     71108] cuts =  0 [   0]
  --> max chng: dpmx=   1.5064E+00 dtmpmx=   2.5507E-02

== TH FLOW =====================================================================
 Step    527 Time=  2.57500E+01 Dt=  5.00000E-02 [y] snes_conv_reason:    3
  newton =   1 [     534] linear =   136 [     71244] cuts =  0 [   0]
  --> max chng: dpmx=   1.5056E+00 dtmpmx=   2.5464E-02

== TH FLOW =====================================================================
 Step    528 Time=  2.58000E+01 Dt=  5.00000E-02 [y] snes_conv_reason:    3
  newton =   1 [     535] linear =   130 [     71374] cuts =  0 [   0]
  --> max chng: dpmx=   1.5050E+00 dtmpmx=   2.5454E-02

== TH FLOW =====================================================================
 Step    529 Time=  2.58500E+01 Dt=  5.00000E-02 [y] snes_conv_reason:    3
  newton =   1 [     536] linear =   136 [     71510] cuts =  0 [   0]
  --> max chng: dpmx=   1.5036E+00 dtmpmx=   2.5439E-02

== TH FLOW =====================================================================
 Step    530 Time=  2.59000E+01 Dt=  5.00000E-02 [y] snes_conv_reason:    3
  newton =   1 [     537] linear =   129 [     71639] cuts =  0 [   0]
  --> max chng: dpmx=   1.5030E+00 dtmpmx=   2.5419E-02

== TH FLOW =====================================================================
 Step    531 Time=  2.59500E+01 Dt=  5.00000E-02 [y] snes_conv_reason:    3
  newton =   1 [     538] linear =   131 [     71770] cuts =  0 [   0]
  --> max chng: dpmx=   1.5019E+00 dtmpmx=   2.5396E-02

== TH FLOW =====================================================================
 Step    532 Time=  2.60000E+01 Dt=  5.00000E-02 [y] snes_conv_reason:    3
  newton =   1 [     539] linear =   139 [     71909] cuts =  0 [   0]
  --> max chng: dpmx=   1.5009E+00 dtmpmx=   2.5367E-02

== TH FLOW =====================================================================
 Step    533 Time=  2.60500E+01 Dt=  5.00000E-02 [y] snes_conv_reason:    3
  newton =   1 [     540] linear =   130 [     72039] cuts =  0 [   0]
  --> max chng: dpmx=   1.4999E+00 dtmpmx=   2.5335E-02

== TH FLOW =====================================================================
 Step    534 Time=  2.61000E+01 Dt=  5.00000E-02 [y] snes_conv_reason:    3
  newton =   1 [     541] linear =   131 [     72170] cuts =  0 [   0]
  --> max chng: dpmx=   1.4989E+00 dtmpmx=   2.5297E-02

== TH FLOW =====================================================================
 Step    535 Time=  2.61500E+01 Dt=  5.00000E-02 [y] snes_conv_reason:    3
  newton =   1 [     542] linear =   118 [     72288] cuts =  0 [   0]
  --> max chng: dpmx=   1.4977E+00 dtmpmx=   2.5256E-02

== TH FLOW =====================================================================
 Step    536 Time=  2.62000E+01 Dt=  5.00000E-02 [y] snes_conv_reason:    3
  newton =   1 [     543] linear =   133 [     72421] cuts =  0 [   0]
  --> max chng: dpmx=   1.4969E+00 dtmpmx=   2.5218E-02

== TH FLOW =====================================================================
 Step    537 Time=  2.62500E+01 Dt=  5.00000E-02 [y] snes_conv_reason:    3
  newton =   1 [     544] linear =   133 [     72554] cuts =  0 [   0]
  --> max chng: dpmx=   1.4962E+00 dtmpmx=   2.5207E-02

== TH FLOW =====================================================================
 Step    538 Time=  2.63000E+01 Dt=  5.00000E-02 [y] snes_conv_reason:    3
  newton =   1 [     545] linear =   133 [     72687] cuts =  0 [   0]
  --> max chng: dpmx=   1.4952E+00 dtmpmx=   2.5192E-02

== TH FLOW =====================================================================
 Step    539 Time=  2.63500E+01 Dt=  5.00000E-02 [y] snes_conv_reason:    3
  newton =   1 [     546] linear =   129 [     72816] cuts =  0 [   0]
  --> max chng: dpmx=   1.4942E+00 dtmpmx=   2.5173E-02

== TH FLOW =====================================================================
 Step    540 Time=  2.64000E+01 Dt=  5.00000E-02 [y] snes_conv_reason:    3
  newton =   1 [     547] linear =   135 [     72951] cuts =  0 [   0]
  --> max chng: dpmx=   1.4930E+00 dtmpmx=   2.5149E-02

== TH FLOW =====================================================================
 Step    541 Time=  2.64500E+01 Dt=  5.00000E-02 [y] snes_conv_reason:    3
  newton =   1 [     548] linear =   136 [     73087] cuts =  0 [   0]
  --> max chng: dpmx=   1.4920E+00 dtmpmx=   2.5121E-02

== TH FLOW =====================================================================
 Step    542 Time=  2.65000E+01 Dt=  5.00000E-02 [y] snes_conv_reason:    3
  newton =   1 [     549] linear =   136 [     73223] cuts =  0 [   0]
  --> max chng: dpmx=   1.4908E+00 dtmpmx=   2.5089E-02

== TH FLOW =====================================================================
 Step    543 Time=  2.65500E+01 Dt=  5.00000E-02 [y] snes_conv_reason:    3
  newton =   1 [     550] linear =   130 [     73353] cuts =  0 [   0]
  --> max chng: dpmx=   1.4903E+00 dtmpmx=   2.5052E-02

== TH FLOW =====================================================================
 Step    544 Time=  2.66000E+01 Dt=  5.00000E-02 [y] snes_conv_reason:    3
  newton =   1 [     551] linear =   135 [     73488] cuts =  0 [   0]
  --> max chng: dpmx=   1.4894E+00 dtmpmx=   2.5011E-02

== TH FLOW =====================================================================
 Step    545 Time=  2.66500E+01 Dt=  5.00000E-02 [y] snes_conv_reason:    3
  newton =   1 [     552] linear =   135 [     73623] cuts =  0 [   0]
  --> max chng: dpmx=   1.4883E+00 dtmpmx=   2.4978E-02

== TH FLOW =====================================================================
 Step    546 Time=  2.67000E+01 Dt=  5.00000E-02 [y] snes_conv_reason:    3
  newton =   1 [     553] linear =   136 [     73759] cuts =  0 [   0]
  --> max chng: dpmx=   1.4873E+00 dtmpmx=   2.4967E-02

== TH FLOW =====================================================================
 Step    547 Time=  2.67500E+01 Dt=  5.00000E-02 [y] snes_conv_reason:    3
  newton =   1 [     554] linear =   133 [     73892] cuts =  0 [   0]
  --> max chng: dpmx=   1.4863E+00 dtmpmx=   2.4952E-02

== TH FLOW =====================================================================
 Step    548 Time=  2.68000E+01 Dt=  5.00000E-02 [y] snes_conv_reason:    3
  newton =   1 [     555] linear =   135 [     74027] cuts =  0 [   0]
  --> max chng: dpmx=   1.4853E+00 dtmpmx=   2.4933E-02

== TH FLOW =====================================================================
 Step    549 Time=  2.68500E+01 Dt=  5.00000E-02 [y] snes_conv_reason:    3
  newton =   1 [     556] linear =   131 [     74158] cuts =  0 [   0]
  --> max chng: dpmx=   1.4845E+00 dtmpmx=   2.4909E-02

== TH FLOW =====================================================================
 Step    550 Time=  2.69000E+01 Dt=  5.00000E-02 [y] snes_conv_reason:    3
  newton =   1 [     557] linear =   131 [     74289] cuts =  0 [   0]
  --> max chng: dpmx=   1.4831E+00 dtmpmx=   2.4881E-02

== TH FLOW =====================================================================
 Step    551 Time=  2.69500E+01 Dt=  5.00000E-02 [y] snes_conv_reason:    3
  newton =   1 [     558] linear =   131 [     74420] cuts =  0 [   0]
  --> max chng: dpmx=   1.4823E+00 dtmpmx=   2.4849E-02

== TH FLOW =====================================================================
 Step    552 Time=  2.70000E+01 Dt=  5.00000E-02 [y] snes_conv_reason:    3
  newton =   1 [     559] linear =   135 [     74555] cuts =  0 [   0]
  --> max chng: dpmx=   1.4814E+00 dtmpmx=   2.4813E-02

== TH FLOW =====================================================================
 Step    553 Time=  2.70500E+01 Dt=  5.00000E-02 [y] snes_conv_reason:    3
  newton =   1 [     560] linear =   132 [     74687] cuts =  0 [   0]
  --> max chng: dpmx=   1.4804E+00 dtmpmx=   2.4773E-02

== TH FLOW =====================================================================
 Step    554 Time=  2.71000E+01 Dt=  5.00000E-02 [y] snes_conv_reason:    3
  newton =   1 [     561] linear =   130 [     74817] cuts =  0 [   0]
  --> max chng: dpmx=   1.4798E+00 dtmpmx=   2.4744E-02

== TH FLOW =====================================================================
 Step    555 Time=  2.71500E+01 Dt=  5.00000E-02 [y] snes_conv_reason:    3
  newton =   1 [     562] linear =   136 [     74953] cuts =  0 [   0]
  --> max chng: dpmx=   1.4782E+00 dtmpmx=   2.4733E-02

== TH FLOW =====================================================================
 Step    556 Time=  2.72000E+01 Dt=  5.00000E-02 [y] snes_conv_reason:    3
  newton =   1 [     563] linear =   134 [     75087] cuts =  0 [   0]
  --> max chng: dpmx=   1.4776E+00 dtmpmx=   2.4717E-02

== TH FLOW =====================================================================
 Step    557 Time=  2.72500E+01 Dt=  5.00000E-02 [y] snes_conv_reason:    3
  newton =   1 [     564] linear =   135 [     75222] cuts =  0 [   0]
  --> max chng: dpmx=   1.4761E+00 dtmpmx=   2.4698E-02

== TH FLOW =====================================================================
 Step    558 Time=  2.73000E+01 Dt=  5.00000E-02 [y] snes_conv_reason:    3
  newton =   1 [     565] linear =   135 [     75357] cuts =  0 [   0]
  --> max chng: dpmx=   1.4754E+00 dtmpmx=   2.4674E-02

== TH FLOW =====================================================================
 Step    559 Time=  2.73500E+01 Dt=  5.00000E-02 [y] snes_conv_reason:    3
  newton =   1 [     566] linear =   137 [     75494] cuts =  0 [   0]
  --> max chng: dpmx=   1.4746E+00 dtmpmx=   2.4647E-02

== TH FLOW =====================================================================
 Step    560 Time=  2.74000E+01 Dt=  5.00000E-02 [y] snes_conv_reason:    3
  newton =   1 [     567] linear =   137 [     75631] cuts =  0 [   0]
  --> max chng: dpmx=   1.4736E+00 dtmpmx=   2.4615E-02

== TH FLOW =====================================================================
 Step    561 Time=  2.74500E+01 Dt=  5.00000E-02 [y] snes_conv_reason:    3
  newton =   1 [     568] linear =   136 [     75767] cuts =  0 [   0]
  --> max chng: dpmx=   1.4728E+00 dtmpmx=   2.4579E-02

== TH FLOW =====================================================================
 Step    562 Time=  2.75000E+01 Dt=  5.00000E-02 [y] snes_conv_reason:    3
  newton =   1 [     569] linear =   132 [     75899] cuts =  0 [   0]
  --> max chng: dpmx=   1.4713E+00 dtmpmx=   2.4540E-02

 Wall Clock Time:  2.8590E+02 [sec]   4.7650E+00 [min]   7.9416E-02 [hr]
