
===================
  PFLOTRAN v3.0.1
===================

 Extent of Gridded Domain
  X: 2.5000000000000000 - 97.500000000000000
  Y: 2.5000000000000000 - 1277.5000000000000
  Z: 2.5000000000000000 - 2.5000000000000000


=+=+=+=+=+=+=+=+=+=+=+=+=+=+=+=+=+=+=+=+=+=+=+=+=+=+=+=+=+=+=+=+=+=+=+=+=+=+=+=+

  Initial Condition

--------------------------------------------------------------------------------
          Flow Condition:   initial
                  Region:   all
--------------------------------------------------------------------------------

  Flow Condition: initial
    Synchronize time with update: no
    Time units: yr
    Length units: m
      Datum:
        Dataset: Unnamed Ascii Dataset
          Type: dataset_ascii_type
          Transient: no
          Array Rank:  3

    Sub Condition: pressure
      Type: hydrostatic
      Gradient:
        Dataset: Unnamed Ascii Dataset
          Type: dataset_ascii_type
          Transient: no
          Array Rank:  3
      Data:
        Dataset: Unnamed Ascii Dataset
          Type: dataset_ascii_type
          Transient: no
          Array Rank:  1

    Sub Condition: temperature
      Type: dirichlet
      Gradient:
      Data:
        Dataset: Unnamed Ascii Dataset
          Type: dataset_ascii_type
          Transient: no
          Array Rank:  1

--------------------------------------------------------------------------------

=+=+=+=+=+=+=+=+=+=+=+=+=+=+=+=+=+=+=+=+=+=+=+=+=+=+=+=+=+=+=+=+=+=+=+=+=+=+=+=+

  Boundary Condition

--------------------------------------------------------------------------------
          Flow Condition:   initial
                  Region:   north
--------------------------------------------------------------------------------

  Flow Condition: initial
    Synchronize time with update: no
    Time units: yr
    Length units: m
      Datum:
        Dataset: Unnamed Ascii Dataset
          Type: dataset_ascii_type
          Transient: no
          Array Rank:  3

    Sub Condition: pressure
      Type: hydrostatic
      Gradient:
        Dataset: Unnamed Ascii Dataset
          Type: dataset_ascii_type
          Transient: no
          Array Rank:  3
      Data:
        Dataset: Unnamed Ascii Dataset
          Type: dataset_ascii_type
          Transient: no
          Array Rank:  1

    Sub Condition: temperature
      Type: dirichlet
      Gradient:
      Data:
        Dataset: Unnamed Ascii Dataset
          Type: dataset_ascii_type
          Transient: no
          Array Rank:  1

--------------------------------------------------------------------------------

=+=+=+=+=+=+=+=+=+=+=+=+=+=+=+=+=+=+=+=+=+=+=+=+=+=+=+=+=+=+=+=+=+=+=+=+=+=+=+=+

  Boundary Condition

--------------------------------------------------------------------------------
          Flow Condition:   initial
                  Region:   south
--------------------------------------------------------------------------------

  Flow Condition: initial
    Synchronize time with update: no
    Time units: yr
    Length units: m
      Datum:
        Dataset: Unnamed Ascii Dataset
          Type: dataset_ascii_type
          Transient: no
          Array Rank:  3

    Sub Condition: pressure
      Type: hydrostatic
      Gradient:
        Dataset: Unnamed Ascii Dataset
          Type: dataset_ascii_type
          Transient: no
          Array Rank:  3
      Data:
        Dataset: Unnamed Ascii Dataset
          Type: dataset_ascii_type
          Transient: no
          Array Rank:  1

    Sub Condition: temperature
      Type: dirichlet
      Gradient:
      Data:
        Dataset: Unnamed Ascii Dataset
          Type: dataset_ascii_type
          Transient: no
          Array Rank:  1

--------------------------------------------------------------------------------

=+=+=+=+=+=+=+=+=+=+=+=+=+=+=+=+=+=+=+=+=+=+=+=+=+=+=+=+=+=+=+=+=+=+=+=+=+=+=+=+

  Source Sink

--------------------------------------------------------------------------------
          Flow Condition:   injection
                  Region:   heatpump_inject0
--------------------------------------------------------------------------------

  Flow Condition: injection
    Synchronize time with update: no
    Time units: yr
    Length units: m
      Datum:

    Sub Condition: rate
      Type: scaled volumetric rate
      Gradient:
      Data:
        Dataset: Unnamed Ascii Dataset
          Type: dataset_ascii_type
          Is transient?: yes
          Number of times:      3
          Is cyclic?: no
          Buffer:
            Rank:  2
            Dims:    1   3
            Buffer Slice Size:   0
          Array Rank:  1

    Sub Condition: temperature
      Type: dirichlet
      Gradient:
      Data:
        Dataset: Unnamed Ascii Dataset
          Type: dataset_ascii_type
          Transient: no
          Array Rank:  1

--------------------------------------------------------------------------------

 Requested processors =    32

FLOW Time Stepper
                 acceleration: on
       acceleration threshold: 5
       number of ramp entries: 5
                ramp entry #1: 2.0000
                ramp entry #2: 2.0000
                ramp entry #3: 2.0000
                ramp entry #4: 2.0000
                ramp entry #5: 2.0000
                ramp entry #6: 1.8000
                ramp entry #7: 1.6000
                ramp entry #8: 1.4000
                ramp entry #9: 1.2000
               ramp entry #10: 1.0000
               ramp entry #11: 1.0000
               ramp entry #12: 1.0000
               ramp entry #13: 1.0000
      maximum number of steps: 999999
constant time steps threshold: 5
       maximum number of cuts: 16
             reduction factor: 5.000000E-01
        maximum growth factor: 2.000000E+00

FLOW Newton Solver
                         atol: 1.000000E-50
                         rtol: 1.000000E-03
                         stol: 1.000000E-08
                         dtol: 1.000000E+04
                      maxnorm: 1.000000E+20
                    inftolres: -9.990000E+02
                    inftolupd: 1.000000E+00
                 inftolrelupd: -9.990000E+02
                 inftolsclres: -9.990000E+02
                     max iter: 50
                     min iter: 1
                         maxf: 10000
                  matrix type: baij
         precond. matrix type: baij
               inexact newton: off
            print convergence: on
   print detailed convergence: off
          check infinity norm: on

FLOW Linear Solver
                       solver: bcgs
               preconditioner: bjacobi
                         atol: 1.000000E-50
                         rtol: 1.000000E-05
                         dtol: 1.000000E+04
            maximum iteration: 10000

== TH FLOW =====================================================================
 Step      1 Time=  1.00000E-05 Dt=  1.00000E-05 [y] snes_conv_reason:   11
  newton =   1 [       1] linear =   121 [       121] cuts =  0 [   0]
  --> max chng: dpmx=   7.7328E-02 dtmpmx=   1.0895E-08

== TH FLOW =====================================================================
 Step      2 Time=  3.00000E-05 Dt=  2.00000E-05 [y] snes_conv_reason:   11
  newton =   1 [       2] linear =   123 [       244] cuts =  0 [   0]
  --> max chng: dpmx=   1.6102E-02 dtmpmx=   2.1616E-08

== TH FLOW =====================================================================
 Step      3 Time=  7.00000E-05 Dt=  4.00000E-05 [y] snes_conv_reason:   11
  newton =   1 [       3] linear =   107 [       351] cuts =  0 [   0]
  --> max chng: dpmx=   1.7163E-03 dtmpmx=   4.3194E-08

== TH FLOW =====================================================================
 Step      4 Time=  1.50000E-04 Dt=  8.00000E-05 [y] snes_conv_reason:   11
  newton =   1 [       4] linear =   123 [       474] cuts =  0 [   0]
  --> max chng: dpmx=   9.3447E-05 dtmpmx=   8.6386E-08

== TH FLOW =====================================================================
 Step      5 Time=  3.10000E-04 Dt=  1.60000E-04 [y] snes_conv_reason:   11
  newton =   1 [       5] linear =   130 [       604] cuts =  0 [   0]
  --> max chng: dpmx=   2.2808E-06 dtmpmx=   1.7277E-07

== TH FLOW =====================================================================
 Step      6 Time=  6.30000E-04 Dt=  3.20000E-04 [y] snes_conv_reason:   11
  newton =   1 [       6] linear =   118 [       722] cuts =  0 [   0]
  --> max chng: dpmx=   1.2426E-06 dtmpmx=   3.4554E-07

== TH FLOW =====================================================================
 Step      7 Time=  1.27000E-03 Dt=  6.40000E-04 [y] snes_conv_reason:   11
  newton =   1 [       7] linear =   125 [       847] cuts =  0 [   0]
  --> max chng: dpmx=   2.5416E-06 dtmpmx=   6.9109E-07

== TH FLOW =====================================================================
 Step      8 Time=  2.55000E-03 Dt=  1.28000E-03 [y] snes_conv_reason:   11
  newton =   1 [       8] linear =   121 [       968] cuts =  0 [   0]
  --> max chng: dpmx=   5.2988E-06 dtmpmx=   1.3822E-06

== TH FLOW =====================================================================
 Step      9 Time=  5.11000E-03 Dt=  2.56000E-03 [y] snes_conv_reason:   11
  newton =   1 [       9] linear =   124 [      1092] cuts =  0 [   0]
  --> max chng: dpmx=   1.1465E-05 dtmpmx=   2.7644E-06

== TH FLOW =====================================================================
 Step     10 Time=  1.02300E-02 Dt=  5.12000E-03 [y] snes_conv_reason:   11
  newton =   1 [      10] linear =   126 [      1218] cuts =  0 [   0]
  --> max chng: dpmx=   2.6409E-05 dtmpmx=   5.5287E-06

== TH FLOW =====================================================================
 Step     11 Time=  2.04700E-02 Dt=  1.02400E-02 [y] snes_conv_reason:   11
  newton =   1 [      11] linear =   124 [      1342] cuts =  0 [   0]
  --> max chng: dpmx=   6.6694E-05 dtmpmx=   1.1057E-05

== TH FLOW =====================================================================
 Step     12 Time=  4.09500E-02 Dt=  2.04800E-02 [y] snes_conv_reason:   11
  newton =   1 [      12] linear =   130 [      1472] cuts =  0 [   0]
  --> max chng: dpmx=   1.8800E-04 dtmpmx=   2.2115E-05

== TH FLOW =====================================================================
 Step     13 Time=  8.19100E-02 Dt=  4.09600E-02 [y] snes_conv_reason:   11
  newton =   1 [      13] linear =   134 [      1606] cuts =  0 [   0]
  --> max chng: dpmx=   5.8895E-04 dtmpmx=   4.4230E-05

== TH FLOW =====================================================================
 Step     14 Time=  1.00000E-01 Dt=  1.80900E-02 [y] snes_conv_reason:   11
  newton =   1 [      14] linear =   132 [      1738] cuts =  0 [   0]
  --> max chng: dpmx=   3.0187E-04 dtmpmx=   1.9534E-05

== TH FLOW =====================================================================
 Step     15 Time=  1.50000E-01 Dt=  5.00000E-02 [y] snes_conv_reason:   11
  newton =   1 [      15] linear =   131 [      1869] cuts =  0 [   0]
  --> max chng: dpmx=   1.1435E-03 dtmpmx=   5.3991E-05

== TH FLOW =====================================================================
 Step     16 Time=  2.00000E-01 Dt=  5.00000E-02 [y] snes_conv_reason:   11
  newton =   1 [      16] linear =   135 [      2004] cuts =  0 [   0]
  --> max chng: dpmx=   1.4469E-03 dtmpmx=   5.3991E-05

== TH FLOW =====================================================================
 Step     17 Time=  2.50000E-01 Dt=  5.00000E-02 [y] snes_conv_reason:   11
  newton =   3 [      19] linear =   381 [      2385] cuts =  0 [   0]
  --> max chng: dpmx=   2.5544E+02 dtmpmx=   2.6034E+00

== TH FLOW =====================================================================
 Step     18 Time=  3.00000E-01 Dt=  5.00000E-02 [y] snes_conv_reason:   11
  newton =   2 [      21] linear =   267 [      2652] cuts =  0 [   0]
  --> max chng: dpmx=   2.3339E+00 dtmpmx=   1.0265E+00

== TH FLOW =====================================================================
 Step     19 Time=  3.50000E-01 Dt=  5.00000E-02 [y] snes_conv_reason:   11
  newton =   2 [      23] linear =   277 [      2929] cuts =  0 [   0]
  --> max chng: dpmx=   2.1201E+00 dtmpmx=   7.3361E-01

== TH FLOW =====================================================================
 Step     20 Time=  4.00000E-01 Dt=  5.00000E-02 [y] snes_conv_reason:   11
  newton =   2 [      25] linear =   264 [      3193] cuts =  0 [   0]
  --> max chng: dpmx=   2.0023E+00 dtmpmx=   5.9584E-01

== TH FLOW =====================================================================
 Step     21 Time=  4.50000E-01 Dt=  5.00000E-02 [y] snes_conv_reason:   11
  newton =   2 [      27] linear =   257 [      3450] cuts =  0 [   0]
  --> max chng: dpmx=   1.9222E+00 dtmpmx=   5.1138E-01

== TH FLOW =====================================================================
 Step     22 Time=  5.00000E-01 Dt=  5.00000E-02 [y] snes_conv_reason:   11
  newton =   2 [      29] linear =   262 [      3712] cuts =  0 [   0]
  --> max chng: dpmx=   1.8620E+00 dtmpmx=   4.5258E-01

== TH FLOW =====================================================================
 Step     23 Time=  5.50000E-01 Dt=  5.00000E-02 [y] snes_conv_reason:   11
  newton =   2 [      31] linear =   275 [      3987] cuts =  0 [   0]
  --> max chng: dpmx=   1.8135E+00 dtmpmx=   4.0846E-01

== TH FLOW =====================================================================
 Step     24 Time=  6.00000E-01 Dt=  5.00000E-02 [y] snes_conv_reason:   11
  newton =   2 [      33] linear =   268 [      4255] cuts =  0 [   0]
  --> max chng: dpmx=   1.7721E+00 dtmpmx=   3.7374E-01

== TH FLOW =====================================================================
 Step     25 Time=  6.50000E-01 Dt=  5.00000E-02 [y] snes_conv_reason:    3
  newton =   1 [      34] linear =   124 [      4379] cuts =  0 [   0]
  --> max chng: dpmx=   1.7353E+00 dtmpmx=   3.4676E-01

== TH FLOW =====================================================================
 Step     26 Time=  7.00000E-01 Dt=  5.00000E-02 [y] snes_conv_reason:    3
  newton =   1 [      35] linear =   124 [      4503] cuts =  0 [   0]
  --> max chng: dpmx=   1.7023E+00 dtmpmx=   3.2385E-01

== TH FLOW =====================================================================
 Step     27 Time=  7.50000E-01 Dt=  5.00000E-02 [y] snes_conv_reason:    3
  newton =   1 [      36] linear =   127 [      4630] cuts =  0 [   0]
  --> max chng: dpmx=   1.6723E+00 dtmpmx=   3.0415E-01

== TH FLOW =====================================================================
 Step     28 Time=  8.00000E-01 Dt=  5.00000E-02 [y] snes_conv_reason:    3
  newton =   1 [      37] linear =   136 [      4766] cuts =  0 [   0]
  --> max chng: dpmx=   1.6434E+00 dtmpmx=   2.8696E-01

== TH FLOW =====================================================================
 Step     29 Time=  8.50000E-01 Dt=  5.00000E-02 [y] snes_conv_reason:    3
  newton =   1 [      38] linear =   131 [      4897] cuts =  0 [   0]
  --> max chng: dpmx=   1.6171E+00 dtmpmx=   2.7177E-01

== TH FLOW =====================================================================
 Step     30 Time=  9.00000E-01 Dt=  5.00000E-02 [y] snes_conv_reason:    3
  newton =   1 [      39] linear =   135 [      5032] cuts =  0 [   0]
  --> max chng: dpmx=   1.5901E+00 dtmpmx=   2.5822E-01

== TH FLOW =====================================================================
 Step     31 Time=  9.50000E-01 Dt=  5.00000E-02 [y] snes_conv_reason:    3
  newton =   1 [      40] linear =   133 [      5165] cuts =  0 [   0]
  --> max chng: dpmx=   1.5655E+00 dtmpmx=   2.4603E-01

== TH FLOW =====================================================================
 Step     32 Time=  1.00000E+00 Dt=  5.00000E-02 [y] snes_conv_reason:    3
  newton =   1 [      41] linear =   132 [      5297] cuts =  0 [   0]
  --> max chng: dpmx=   1.5407E+00 dtmpmx=   2.3542E-01

== TH FLOW =====================================================================
 Step     33 Time=  1.05000E+00 Dt=  5.00000E-02 [y] snes_conv_reason:    3
  newton =   1 [      42] linear =   132 [      5429] cuts =  0 [   0]
  --> max chng: dpmx=   1.5176E+00 dtmpmx=   2.2575E-01

== TH FLOW =====================================================================
 Step     34 Time=  1.10000E+00 Dt=  5.00000E-02 [y] snes_conv_reason:    3
  newton =   1 [      43] linear =   132 [      5561] cuts =  0 [   0]
  --> max chng: dpmx=   1.4951E+00 dtmpmx=   2.1684E-01

== TH FLOW =====================================================================
 Step     35 Time=  1.15000E+00 Dt=  5.00000E-02 [y] snes_conv_reason:    3
  newton =   1 [      44] linear =   131 [      5692] cuts =  0 [   0]
  --> max chng: dpmx=   1.4712E+00 dtmpmx=   2.0860E-01

== TH FLOW =====================================================================
 Step     36 Time=  1.20000E+00 Dt=  5.00000E-02 [y] snes_conv_reason:    3
  newton =   1 [      45] linear =   133 [      5825] cuts =  0 [   0]
  --> max chng: dpmx=   1.4496E+00 dtmpmx=   2.0096E-01

== TH FLOW =====================================================================
 Step     37 Time=  1.25000E+00 Dt=  5.00000E-02 [y] snes_conv_reason:    3
  newton =   1 [      46] linear =   134 [      5959] cuts =  0 [   0]
  --> max chng: dpmx=   1.4270E+00 dtmpmx=   1.9385E-01

== TH FLOW =====================================================================
 Step     38 Time=  1.30000E+00 Dt=  5.00000E-02 [y] snes_conv_reason:    3
  newton =   1 [      47] linear =   132 [      6091] cuts =  0 [   0]
  --> max chng: dpmx=   1.4060E+00 dtmpmx=   1.8724E-01

== TH FLOW =====================================================================
 Step     39 Time=  1.35000E+00 Dt=  5.00000E-02 [y] snes_conv_reason:    3
  newton =   1 [      48] linear =   134 [      6225] cuts =  0 [   0]
  --> max chng: dpmx=   1.3849E+00 dtmpmx=   1.8128E-01

== TH FLOW =====================================================================
 Step     40 Time=  1.40000E+00 Dt=  5.00000E-02 [y] snes_conv_reason:    3
  newton =   1 [      49] linear =   128 [      6353] cuts =  0 [   0]
  --> max chng: dpmx=   1.3628E+00 dtmpmx=   1.7567E-01

== TH FLOW =====================================================================
 Step     41 Time=  1.45000E+00 Dt=  5.00000E-02 [y] snes_conv_reason:    3
  newton =   1 [      50] linear =   135 [      6488] cuts =  0 [   0]
  --> max chng: dpmx=   1.3428E+00 dtmpmx=   1.7037E-01

== TH FLOW =====================================================================
 Step     42 Time=  1.50000E+00 Dt=  5.00000E-02 [y] snes_conv_reason:    3
  newton =   1 [      51] linear =   129 [      6617] cuts =  0 [   0]
  --> max chng: dpmx=   1.3218E+00 dtmpmx=   1.6536E-01

== TH FLOW =====================================================================
 Step     43 Time=  1.55000E+00 Dt=  5.00000E-02 [y] snes_conv_reason:    3
  newton =   1 [      52] linear =   134 [      6751] cuts =  0 [   0]
  --> max chng: dpmx=   1.3013E+00 dtmpmx=   1.6062E-01

== TH FLOW =====================================================================
 Step     44 Time=  1.60000E+00 Dt=  5.00000E-02 [y] snes_conv_reason:    3
  newton =   1 [      53] linear =   131 [      6882] cuts =  0 [   0]
  --> max chng: dpmx=   1.2811E+00 dtmpmx=   1.5612E-01

== TH FLOW =====================================================================
 Step     45 Time=  1.65000E+00 Dt=  5.00000E-02 [y] snes_conv_reason:    3
  newton =   1 [      54] linear =   131 [      7013] cuts =  0 [   0]
  --> max chng: dpmx=   1.2607E+00 dtmpmx=   1.5191E-01

== TH FLOW =====================================================================
 Step     46 Time=  1.70000E+00 Dt=  5.00000E-02 [y] snes_conv_reason:    3
  newton =   1 [      55] linear =   130 [      7143] cuts =  0 [   0]
  --> max chng: dpmx=   1.2408E+00 dtmpmx=   1.4801E-01

== TH FLOW =====================================================================
 Step     47 Time=  1.75000E+00 Dt=  5.00000E-02 [y] snes_conv_reason:    3
  newton =   1 [      56] linear =   130 [      7273] cuts =  0 [   0]
  --> max chng: dpmx=   1.2211E+00 dtmpmx=   1.4428E-01

== TH FLOW =====================================================================
 Step     48 Time=  1.80000E+00 Dt=  5.00000E-02 [y] snes_conv_reason:    3
  newton =   1 [      57] linear =   131 [      7404] cuts =  0 [   0]
  --> max chng: dpmx=   1.2014E+00 dtmpmx=   1.4071E-01

== TH FLOW =====================================================================
 Step     49 Time=  1.85000E+00 Dt=  5.00000E-02 [y] snes_conv_reason:    3
  newton =   1 [      58] linear =   130 [      7534] cuts =  0 [   0]
  --> max chng: dpmx=   1.1817E+00 dtmpmx=   1.3729E-01

== TH FLOW =====================================================================
 Step     50 Time=  1.90000E+00 Dt=  5.00000E-02 [y] snes_conv_reason:    3
  newton =   1 [      59] linear =   128 [      7662] cuts =  0 [   0]
  --> max chng: dpmx=   1.1621E+00 dtmpmx=   1.3402E-01

== TH FLOW =====================================================================
 Step     51 Time=  1.95000E+00 Dt=  5.00000E-02 [y] snes_conv_reason:    3
  newton =   1 [      60] linear =   130 [      7792] cuts =  0 [   0]
  --> max chng: dpmx=   1.1425E+00 dtmpmx=   1.3088E-01

== TH FLOW =====================================================================
 Step     52 Time=  2.00000E+00 Dt=  5.00000E-02 [y] snes_conv_reason:    3
  newton =   1 [      61] linear =   128 [      7920] cuts =  0 [   0]
  --> max chng: dpmx=   1.1237E+00 dtmpmx=   1.2797E-01

== TH FLOW =====================================================================
 Step     53 Time=  2.05000E+00 Dt=  5.00000E-02 [y] snes_conv_reason:    3
  newton =   1 [      62] linear =   127 [      8047] cuts =  0 [   0]
  --> max chng: dpmx=   1.1045E+00 dtmpmx=   1.2519E-01

== TH FLOW =====================================================================
 Step     54 Time=  2.10000E+00 Dt=  5.00000E-02 [y] snes_conv_reason:    3
  newton =   1 [      63] linear =   135 [      8182] cuts =  0 [   0]
  --> max chng: dpmx=   1.0848E+00 dtmpmx=   1.2251E-01

== TH FLOW =====================================================================
 Step     55 Time=  2.15000E+00 Dt=  5.00000E-02 [y] snes_conv_reason:    3
  newton =   1 [      64] linear =   123 [      8305] cuts =  0 [   0]
  --> max chng: dpmx=   1.0663E+00 dtmpmx=   1.1993E-01

== TH FLOW =====================================================================
 Step     56 Time=  2.20000E+00 Dt=  5.00000E-02 [y] snes_conv_reason:    3
  newton =   1 [      65] linear =   132 [      8437] cuts =  0 [   0]
  --> max chng: dpmx=   1.0468E+00 dtmpmx=   1.1744E-01

== TH FLOW =====================================================================
 Step     57 Time=  2.25000E+00 Dt=  5.00000E-02 [y] snes_conv_reason:    3
  newton =   1 [      66] linear =   123 [      8560] cuts =  0 [   0]
  --> max chng: dpmx=   1.0278E+00 dtmpmx=   1.1503E-01

== TH FLOW =====================================================================
 Step     58 Time=  2.30000E+00 Dt=  5.00000E-02 [y] snes_conv_reason:    3
  newton =   1 [      67] linear =   128 [      8688] cuts =  0 [   0]
  --> max chng: dpmx=   1.0093E+00 dtmpmx=   1.1273E-01

== TH FLOW =====================================================================
 Step     59 Time=  2.35000E+00 Dt=  5.00000E-02 [y] snes_conv_reason:   11
  newton =   1 [      68] linear =   129 [      8817] cuts =  0 [   0]
  --> max chng: dpmx=   9.9074E-01 dtmpmx=   1.1058E-01

== TH FLOW =====================================================================
 Step     60 Time=  2.40000E+00 Dt=  5.00000E-02 [y] snes_conv_reason:   11
  newton =   1 [      69] linear =   126 [      8943] cuts =  0 [   0]
  --> max chng: dpmx=   9.7155E-01 dtmpmx=   1.0849E-01

== TH FLOW =====================================================================
 Step     61 Time=  2.45000E+00 Dt=  5.00000E-02 [y] snes_conv_reason:   11
  newton =   1 [      70] linear =   128 [      9071] cuts =  0 [   0]
  --> max chng: dpmx=   9.5349E-01 dtmpmx=   1.0647E-01

== TH FLOW =====================================================================
 Step     62 Time=  2.50000E+00 Dt=  5.00000E-02 [y] snes_conv_reason:   11
  newton =   1 [      71] linear =   126 [      9197] cuts =  0 [   0]
  --> max chng: dpmx=   9.3444E-01 dtmpmx=   1.0451E-01

== TH FLOW =====================================================================
 Step     63 Time=  2.55000E+00 Dt=  5.00000E-02 [y] snes_conv_reason:   11
  newton =   1 [      72] linear =   127 [      9324] cuts =  0 [   0]
  --> max chng: dpmx=   9.1662E-01 dtmpmx=   1.0261E-01

== TH FLOW =====================================================================
 Step     64 Time=  2.60000E+00 Dt=  5.00000E-02 [y] snes_conv_reason:   11
  newton =   1 [      73] linear =   130 [      9454] cuts =  0 [   0]
  --> max chng: dpmx=   8.9753E-01 dtmpmx=   1.0077E-01

== TH FLOW =====================================================================
 Step     65 Time=  2.65000E+00 Dt=  5.00000E-02 [y] snes_conv_reason:   11
  newton =   1 [      74] linear =   124 [      9578] cuts =  0 [   0]
  --> max chng: dpmx=   8.7915E-01 dtmpmx=   9.9025E-02

== TH FLOW =====================================================================
 Step     66 Time=  2.70000E+00 Dt=  5.00000E-02 [y] snes_conv_reason:   11
  newton =   1 [      75] linear =   130 [      9708] cuts =  0 [   0]
  --> max chng: dpmx=   8.6041E-01 dtmpmx=   9.7355E-02

== TH FLOW =====================================================================
 Step     67 Time=  2.75000E+00 Dt=  5.00000E-02 [y] snes_conv_reason:   11
  newton =   1 [      76] linear =   124 [      9832] cuts =  0 [   0]
  --> max chng: dpmx=   8.4299E-01 dtmpmx=   9.5731E-02

== TH FLOW =====================================================================
 Step     68 Time=  2.80000E+00 Dt=  5.00000E-02 [y] snes_conv_reason:   11
  newton =   1 [      77] linear =   125 [      9957] cuts =  0 [   0]
  --> max chng: dpmx=   8.2393E-01 dtmpmx=   9.4151E-02

== TH FLOW =====================================================================
 Step     69 Time=  2.85000E+00 Dt=  5.00000E-02 [y] snes_conv_reason:   11
  newton =   1 [      78] linear =   128 [     10085] cuts =  0 [   0]
  --> max chng: dpmx=   8.0620E-01 dtmpmx=   9.2612E-02

== TH FLOW =====================================================================
 Step     70 Time=  2.90000E+00 Dt=  5.00000E-02 [y] snes_conv_reason:   11
  newton =   1 [      79] linear =   129 [     10214] cuts =  0 [   0]
  --> max chng: dpmx=   8.0468E-01 dtmpmx=   9.1115E-02

== TH FLOW =====================================================================
 Step     71 Time=  2.95000E+00 Dt=  5.00000E-02 [y] snes_conv_reason:   11
  newton =   1 [      80] linear =   132 [     10346] cuts =  0 [   0]
  --> max chng: dpmx=   8.1759E-01 dtmpmx=   8.9661E-02

== TH FLOW =====================================================================
 Step     72 Time=  3.00000E+00 Dt=  5.00000E-02 [y] snes_conv_reason:   11
  newton =   1 [      81] linear =   127 [     10473] cuts =  0 [   0]
  --> max chng: dpmx=   8.3054E-01 dtmpmx=   8.8296E-02

== TH FLOW =====================================================================
 Step     73 Time=  3.05000E+00 Dt=  5.00000E-02 [y] snes_conv_reason:   11
  newton =   1 [      82] linear =   127 [     10600] cuts =  0 [   0]
  --> max chng: dpmx=   8.4358E-01 dtmpmx=   8.6963E-02

== TH FLOW =====================================================================
 Step     74 Time=  3.10000E+00 Dt=  5.00000E-02 [y] snes_conv_reason:   11
  newton =   1 [      83] linear =   133 [     10733] cuts =  0 [   0]
  --> max chng: dpmx=   8.5649E-01 dtmpmx=   8.5663E-02

== TH FLOW =====================================================================
 Step     75 Time=  3.15000E+00 Dt=  5.00000E-02 [y] snes_conv_reason:   11
  newton =   1 [      84] linear =   132 [     10865] cuts =  0 [   0]
  --> max chng: dpmx=   8.6968E-01 dtmpmx=   8.4393E-02

== TH FLOW =====================================================================
 Step     76 Time=  3.20000E+00 Dt=  5.00000E-02 [y] snes_conv_reason:   11
  newton =   1 [      85] linear =   128 [     10993] cuts =  0 [   0]
  --> max chng: dpmx=   8.8280E-01 dtmpmx=   8.3153E-02

== TH FLOW =====================================================================
 Step     77 Time=  3.25000E+00 Dt=  5.00000E-02 [y] snes_conv_reason:   11
  newton =   1 [      86] linear =   132 [     11125] cuts =  0 [   0]
  --> max chng: dpmx=   8.9590E-01 dtmpmx=   8.1942E-02

== TH FLOW =====================================================================
 Step     78 Time=  3.30000E+00 Dt=  5.00000E-02 [y] snes_conv_reason:   11
  newton =   1 [      87] linear =   132 [     11257] cuts =  0 [   0]
  --> max chng: dpmx=   9.0919E-01 dtmpmx=   8.0785E-02

== TH FLOW =====================================================================
 Step     79 Time=  3.35000E+00 Dt=  5.00000E-02 [y] snes_conv_reason:   11
  newton =   1 [      88] linear =   134 [     11391] cuts =  0 [   0]
  --> max chng: dpmx=   9.2246E-01 dtmpmx=   7.9673E-02

== TH FLOW =====================================================================
 Step     80 Time=  3.40000E+00 Dt=  5.00000E-02 [y] snes_conv_reason:   11
  newton =   1 [      89] linear =   129 [     11520] cuts =  0 [   0]
  --> max chng: dpmx=   9.3548E-01 dtmpmx=   7.8585E-02

== TH FLOW =====================================================================
 Step     81 Time=  3.45000E+00 Dt=  5.00000E-02 [y] snes_conv_reason:   11
  newton =   1 [      90] linear =   121 [     11641] cuts =  0 [   0]
  --> max chng: dpmx=   9.4896E-01 dtmpmx=   7.7520E-02

== TH FLOW =====================================================================
 Step     82 Time=  3.50000E+00 Dt=  5.00000E-02 [y] snes_conv_reason:   11
  newton =   1 [      91] linear =   130 [     11771] cuts =  0 [   0]
  --> max chng: dpmx=   9.6232E-01 dtmpmx=   7.6478E-02

== TH FLOW =====================================================================
 Step     83 Time=  3.55000E+00 Dt=  5.00000E-02 [y] snes_conv_reason:   11
  newton =   1 [      92] linear =   130 [     11901] cuts =  0 [   0]
  --> max chng: dpmx=   9.7566E-01 dtmpmx=   7.5457E-02

== TH FLOW =====================================================================
 Step     84 Time=  3.60000E+00 Dt=  5.00000E-02 [y] snes_conv_reason:   11
  newton =   1 [      93] linear =   126 [     12027] cuts =  0 [   0]
  --> max chng: dpmx=   9.8892E-01 dtmpmx=   7.4459E-02

== TH FLOW =====================================================================
 Step     85 Time=  3.65000E+00 Dt=  5.00000E-02 [y] snes_conv_reason:    3
  newton =   1 [      94] linear =   130 [     12157] cuts =  0 [   0]
  --> max chng: dpmx=   1.0026E+00 dtmpmx=   7.3518E-02

== TH FLOW =====================================================================
 Step     86 Time=  3.70000E+00 Dt=  5.00000E-02 [y] snes_conv_reason:    3
  newton =   1 [      95] linear =   115 [     12272] cuts =  0 [   0]
  --> max chng: dpmx=   1.0158E+00 dtmpmx=   7.2596E-02

== TH FLOW =====================================================================
 Step     87 Time=  3.75000E+00 Dt=  5.00000E-02 [y] snes_conv_reason:    3
  newton =   1 [      96] linear =   131 [     12403] cuts =  0 [   0]
  --> max chng: dpmx=   1.0292E+00 dtmpmx=   7.1691E-02

== TH FLOW =====================================================================
 Step     88 Time=  3.80000E+00 Dt=  5.00000E-02 [y] snes_conv_reason:    3
  newton =   1 [      97] linear =   121 [     12524] cuts =  0 [   0]
  --> max chng: dpmx=   1.0429E+00 dtmpmx=   7.0803E-02

== TH FLOW =====================================================================
 Step     89 Time=  3.85000E+00 Dt=  5.00000E-02 [y] snes_conv_reason:    3
  newton =   1 [      98] linear =   126 [     12650] cuts =  0 [   0]
  --> max chng: dpmx=   1.0565E+00 dtmpmx=   6.9932E-02

== TH FLOW =====================================================================
 Step     90 Time=  3.90000E+00 Dt=  5.00000E-02 [y] snes_conv_reason:    3
  newton =   1 [      99] linear =   127 [     12777] cuts =  0 [   0]
  --> max chng: dpmx=   1.0699E+00 dtmpmx=   6.9077E-02

== TH FLOW =====================================================================
 Step     91 Time=  3.95000E+00 Dt=  5.00000E-02 [y] snes_conv_reason:    3
  newton =   1 [     100] linear =   121 [     12898] cuts =  0 [   0]
  --> max chng: dpmx=   1.0833E+00 dtmpmx=   6.8255E-02

== TH FLOW =====================================================================
 Step     92 Time=  4.00000E+00 Dt=  5.00000E-02 [y] snes_conv_reason:    3
  newton =   1 [     101] linear =   116 [     13014] cuts =  0 [   0]
  --> max chng: dpmx=   1.0971E+00 dtmpmx=   6.7463E-02

== TH FLOW =====================================================================
 Step     93 Time=  4.05000E+00 Dt=  5.00000E-02 [y] snes_conv_reason:    3
  newton =   1 [     102] linear =   122 [     13136] cuts =  0 [   0]
  --> max chng: dpmx=   1.1106E+00 dtmpmx=   6.6685E-02

== TH FLOW =====================================================================
 Step     94 Time=  4.10000E+00 Dt=  5.00000E-02 [y] snes_conv_reason:    3
  newton =   1 [     103] linear =   123 [     13259] cuts =  0 [   0]
  --> max chng: dpmx=   1.1241E+00 dtmpmx=   6.5920E-02

== TH FLOW =====================================================================
 Step     95 Time=  4.15000E+00 Dt=  5.00000E-02 [y] snes_conv_reason:    3
  newton =   1 [     104] linear =   122 [     13381] cuts =  0 [   0]
  --> max chng: dpmx=   1.1378E+00 dtmpmx=   6.5169E-02

== TH FLOW =====================================================================
 Step     96 Time=  4.20000E+00 Dt=  5.00000E-02 [y] snes_conv_reason:    3
  newton =   1 [     105] linear =   125 [     13506] cuts =  0 [   0]
  --> max chng: dpmx=   1.1514E+00 dtmpmx=   6.4431E-02

== TH FLOW =====================================================================
 Step     97 Time=  4.25000E+00 Dt=  5.00000E-02 [y] snes_conv_reason:    3
  newton =   1 [     106] linear =   126 [     13632] cuts =  0 [   0]
  --> max chng: dpmx=   1.1653E+00 dtmpmx=   6.3705E-02

== TH FLOW =====================================================================
 Step     98 Time=  4.30000E+00 Dt=  5.00000E-02 [y] snes_conv_reason:    3
  newton =   1 [     107] linear =   126 [     13758] cuts =  0 [   0]
  --> max chng: dpmx=   1.1785E+00 dtmpmx=   6.3017E-02

== TH FLOW =====================================================================
 Step     99 Time=  4.35000E+00 Dt=  5.00000E-02 [y] snes_conv_reason:    3
  newton =   1 [     108] linear =   126 [     13884] cuts =  0 [   0]
  --> max chng: dpmx=   1.1924E+00 dtmpmx=   6.2342E-02

== TH FLOW =====================================================================
 Step    100 Time=  4.40000E+00 Dt=  5.00000E-02 [y] snes_conv_reason:    3
  newton =   1 [     109] linear =   128 [     14012] cuts =  0 [   0]
  --> max chng: dpmx=   1.2059E+00 dtmpmx=   6.1677E-02

== TH FLOW =====================================================================
 Step    101 Time=  4.45000E+00 Dt=  5.00000E-02 [y] snes_conv_reason:    3
  newton =   1 [     110] linear =   130 [     14142] cuts =  0 [   0]
  --> max chng: dpmx=   1.2195E+00 dtmpmx=   6.1022E-02

== TH FLOW =====================================================================
 Step    102 Time=  4.50000E+00 Dt=  5.00000E-02 [y] snes_conv_reason:    3
  newton =   1 [     111] linear =   128 [     14270] cuts =  0 [   0]
  --> max chng: dpmx=   1.2331E+00 dtmpmx=   6.0378E-02

== TH FLOW =====================================================================
 Step    103 Time=  4.55000E+00 Dt=  5.00000E-02 [y] snes_conv_reason:    3
  newton =   1 [     112] linear =   123 [     14393] cuts =  0 [   0]
  --> max chng: dpmx=   1.2466E+00 dtmpmx=   5.9744E-02

== TH FLOW =====================================================================
 Step    104 Time=  4.60000E+00 Dt=  5.00000E-02 [y] snes_conv_reason:    3
  newton =   1 [     113] linear =   124 [     14517] cuts =  0 [   0]
  --> max chng: dpmx=   1.2600E+00 dtmpmx=   5.9129E-02

== TH FLOW =====================================================================
 Step    105 Time=  4.65000E+00 Dt=  5.00000E-02 [y] snes_conv_reason:    3
  newton =   1 [     114] linear =   129 [     14646] cuts =  0 [   0]
  --> max chng: dpmx=   1.2731E+00 dtmpmx=   5.8538E-02

== TH FLOW =====================================================================
 Step    106 Time=  4.70000E+00 Dt=  5.00000E-02 [y] snes_conv_reason:    3
  newton =   1 [     115] linear =   125 [     14771] cuts =  0 [   0]
  --> max chng: dpmx=   1.2865E+00 dtmpmx=   5.7954E-02

== TH FLOW =====================================================================
 Step    107 Time=  4.75000E+00 Dt=  5.00000E-02 [y] snes_conv_reason:    3
  newton =   1 [     116] linear =   123 [     14894] cuts =  0 [   0]
  --> max chng: dpmx=   1.2992E+00 dtmpmx=   5.7379E-02

== TH FLOW =====================================================================
 Step    108 Time=  4.80000E+00 Dt=  5.00000E-02 [y] snes_conv_reason:    3
  newton =   1 [     117] linear =   123 [     15017] cuts =  0 [   0]
  --> max chng: dpmx=   1.3121E+00 dtmpmx=   5.6813E-02

== TH FLOW =====================================================================
 Step    109 Time=  4.85000E+00 Dt=  5.00000E-02 [y] snes_conv_reason:    3
  newton =   1 [     118] linear =   123 [     15140] cuts =  0 [   0]
  --> max chng: dpmx=   1.3244E+00 dtmpmx=   5.6254E-02

== TH FLOW =====================================================================
 Step    110 Time=  4.90000E+00 Dt=  5.00000E-02 [y] snes_conv_reason:    3
  newton =   1 [     119] linear =   120 [     15260] cuts =  0 [   0]
  --> max chng: dpmx=   1.3364E+00 dtmpmx=   5.5703E-02

== TH FLOW =====================================================================
 Step    111 Time=  4.95000E+00 Dt=  5.00000E-02 [y] snes_conv_reason:    3
  newton =   1 [     120] linear =   121 [     15381] cuts =  0 [   0]
  --> max chng: dpmx=   1.3482E+00 dtmpmx=   5.5178E-02

== TH FLOW =====================================================================
 Step    112 Time=  5.00000E+00 Dt=  5.00000E-02 [y] snes_conv_reason:    3
  newton =   1 [     121] linear =   118 [     15499] cuts =  0 [   0]
  --> max chng: dpmx=   1.3588E+00 dtmpmx=   5.4663E-02

== TH FLOW =====================================================================
 Step    113 Time=  5.05000E+00 Dt=  5.00000E-02 [y] snes_conv_reason:    3
  newton =   1 [     122] linear =   123 [     15622] cuts =  0 [   0]
  --> max chng: dpmx=   1.3698E+00 dtmpmx=   5.4154E-02

== TH FLOW =====================================================================
 Step    114 Time=  5.10000E+00 Dt=  5.00000E-02 [y] snes_conv_reason:    3
  newton =   1 [     123] linear =   124 [     15746] cuts =  0 [   0]
  --> max chng: dpmx=   1.3794E+00 dtmpmx=   5.3652E-02

== TH FLOW =====================================================================
 Step    115 Time=  5.15000E+00 Dt=  5.00000E-02 [y] snes_conv_reason:    3
  newton =   1 [     124] linear =   127 [     15873] cuts =  0 [   0]
  --> max chng: dpmx=   1.3883E+00 dtmpmx=   5.3156E-02

== TH FLOW =====================================================================
 Step    116 Time=  5.20000E+00 Dt=  5.00000E-02 [y] snes_conv_reason:    3
  newton =   1 [     125] linear =   123 [     15996] cuts =  0 [   0]
  --> max chng: dpmx=   1.3960E+00 dtmpmx=   5.2667E-02

== TH FLOW =====================================================================
 Step    117 Time=  5.25000E+00 Dt=  5.00000E-02 [y] snes_conv_reason:    3
  newton =   1 [     126] linear =   122 [     16118] cuts =  0 [   0]
  --> max chng: dpmx=   1.4027E+00 dtmpmx=   5.2190E-02

== TH FLOW =====================================================================
 Step    118 Time=  5.30000E+00 Dt=  5.00000E-02 [y] snes_conv_reason:    3
  newton =   1 [     127] linear =   122 [     16240] cuts =  0 [   0]
  --> max chng: dpmx=   1.4079E+00 dtmpmx=   5.1731E-02

== TH FLOW =====================================================================
 Step    119 Time=  5.35000E+00 Dt=  5.00000E-02 [y] snes_conv_reason:    3
  newton =   1 [     128] linear =   121 [     16361] cuts =  0 [   0]
  --> max chng: dpmx=   1.4116E+00 dtmpmx=   5.1278E-02

== TH FLOW =====================================================================
 Step    120 Time=  5.40000E+00 Dt=  5.00000E-02 [y] snes_conv_reason:    3
  newton =   1 [     129] linear =   119 [     16480] cuts =  0 [   0]
  --> max chng: dpmx=   1.4139E+00 dtmpmx=   5.0830E-02

== TH FLOW =====================================================================
 Step    121 Time=  5.45000E+00 Dt=  5.00000E-02 [y] snes_conv_reason:    3
  newton =   1 [     130] linear =   123 [     16603] cuts =  0 [   0]
  --> max chng: dpmx=   1.4140E+00 dtmpmx=   5.0387E-02

== TH FLOW =====================================================================
 Step    122 Time=  5.50000E+00 Dt=  5.00000E-02 [y] snes_conv_reason:    3
  newton =   1 [     131] linear =   126 [     16729] cuts =  0 [   0]
  --> max chng: dpmx=   1.4119E+00 dtmpmx=   4.9950E-02

== TH FLOW =====================================================================
 Step    123 Time=  5.55000E+00 Dt=  5.00000E-02 [y] snes_conv_reason:    3
  newton =   1 [     132] linear =   126 [     16855] cuts =  0 [   0]
  --> max chng: dpmx=   1.4079E+00 dtmpmx=   4.9517E-02

== TH FLOW =====================================================================
 Step    124 Time=  5.60000E+00 Dt=  5.00000E-02 [y] snes_conv_reason:    3
  newton =   1 [     133] linear =   124 [     16979] cuts =  0 [   0]
  --> max chng: dpmx=   1.4010E+00 dtmpmx=   4.9103E-02

== TH FLOW =====================================================================
 Step    125 Time=  5.65000E+00 Dt=  5.00000E-02 [y] snes_conv_reason:    3
  newton =   1 [     134] linear =   120 [     17099] cuts =  0 [   0]
  --> max chng: dpmx=   1.3920E+00 dtmpmx=   4.8697E-02

== TH FLOW =====================================================================
 Step    126 Time=  5.70000E+00 Dt=  5.00000E-02 [y] snes_conv_reason:    3
  newton =   1 [     135] linear =   128 [     17227] cuts =  0 [   0]
  --> max chng: dpmx=   1.3799E+00 dtmpmx=   4.8294E-02

== TH FLOW =====================================================================
 Step    127 Time=  5.75000E+00 Dt=  5.00000E-02 [y] snes_conv_reason:    3
  newton =   1 [     136] linear =   124 [     17351] cuts =  0 [   0]
  --> max chng: dpmx=   1.3649E+00 dtmpmx=   4.7897E-02

== TH FLOW =====================================================================
 Step    128 Time=  5.80000E+00 Dt=  5.00000E-02 [y] snes_conv_reason:    3
  newton =   1 [     137] linear =   126 [     17477] cuts =  0 [   0]
  --> max chng: dpmx=   1.3468E+00 dtmpmx=   4.7503E-02

== TH FLOW =====================================================================
 Step    129 Time=  5.85000E+00 Dt=  5.00000E-02 [y] snes_conv_reason:    3
  newton =   1 [     138] linear =   127 [     17604] cuts =  0 [   0]
  --> max chng: dpmx=   1.3254E+00 dtmpmx=   4.7114E-02

== TH FLOW =====================================================================
 Step    130 Time=  5.90000E+00 Dt=  5.00000E-02 [y] snes_conv_reason:    3
  newton =   1 [     139] linear =   123 [     17727] cuts =  0 [   0]
  --> max chng: dpmx=   1.3013E+00 dtmpmx=   4.6732E-02

== TH FLOW =====================================================================
 Step    131 Time=  5.95000E+00 Dt=  5.00000E-02 [y] snes_conv_reason:    3
  newton =   1 [     140] linear =   124 [     17851] cuts =  0 [   0]
  --> max chng: dpmx=   1.2740E+00 dtmpmx=   4.6366E-02

== TH FLOW =====================================================================
 Step    132 Time=  6.00000E+00 Dt=  5.00000E-02 [y] snes_conv_reason:    3
  newton =   1 [     141] linear =   124 [     17975] cuts =  0 [   0]
  --> max chng: dpmx=   1.2432E+00 dtmpmx=   4.6003E-02

== TH FLOW =====================================================================
 Step    133 Time=  6.05000E+00 Dt=  5.00000E-02 [y] snes_conv_reason:    3
  newton =   1 [     142] linear =   126 [     18101] cuts =  0 [   0]
  --> max chng: dpmx=   1.2094E+00 dtmpmx=   4.5643E-02

== TH FLOW =====================================================================
 Step    134 Time=  6.10000E+00 Dt=  5.00000E-02 [y] snes_conv_reason:    3
  newton =   1 [     143] linear =   128 [     18229] cuts =  0 [   0]
  --> max chng: dpmx=   1.1730E+00 dtmpmx=   4.5287E-02

== TH FLOW =====================================================================
 Step    135 Time=  6.15000E+00 Dt=  5.00000E-02 [y] snes_conv_reason:    3
  newton =   1 [     144] linear =   120 [     18349] cuts =  0 [   0]
  --> max chng: dpmx=   1.1336E+00 dtmpmx=   4.4935E-02

== TH FLOW =====================================================================
 Step    136 Time=  6.20000E+00 Dt=  5.00000E-02 [y] snes_conv_reason:    3
  newton =   1 [     145] linear =   120 [     18469] cuts =  0 [   0]
  --> max chng: dpmx=   1.0920E+00 dtmpmx=   4.4586E-02

== TH FLOW =====================================================================
 Step    137 Time=  6.25000E+00 Dt=  5.00000E-02 [y] snes_conv_reason:    3
  newton =   1 [     146] linear =   129 [     18598] cuts =  0 [   0]
  --> max chng: dpmx=   1.0479E+00 dtmpmx=   4.4249E-02

== TH FLOW =====================================================================
 Step    138 Time=  6.30000E+00 Dt=  5.00000E-02 [y] snes_conv_reason:    3
  newton =   1 [     147] linear =   124 [     18722] cuts =  0 [   0]
  --> max chng: dpmx=   1.0019E+00 dtmpmx=   4.3920E-02

== TH FLOW =====================================================================
 Step    139 Time=  6.35000E+00 Dt=  5.00000E-02 [y] snes_conv_reason:   11
  newton =   1 [     148] linear =   127 [     18849] cuts =  0 [   0]
  --> max chng: dpmx=   9.5434E-01 dtmpmx=   4.3593E-02

== TH FLOW =====================================================================
 Step    140 Time=  6.40000E+00 Dt=  5.00000E-02 [y] snes_conv_reason:   11
  newton =   1 [     149] linear =   127 [     18976] cuts =  0 [   0]
  --> max chng: dpmx=   9.0558E-01 dtmpmx=   4.3269E-02

== TH FLOW =====================================================================
 Step    141 Time=  6.45000E+00 Dt=  5.00000E-02 [y] snes_conv_reason:   11
  newton =   1 [     150] linear =   127 [     19103] cuts =  0 [   0]
  --> max chng: dpmx=   8.5579E-01 dtmpmx=   4.2949E-02

== TH FLOW =====================================================================
 Step    142 Time=  6.50000E+00 Dt=  5.00000E-02 [y] snes_conv_reason:   11
  newton =   1 [     151] linear =   123 [     19226] cuts =  0 [   0]
  --> max chng: dpmx=   8.0565E-01 dtmpmx=   4.2617E-02

== TH FLOW =====================================================================
 Step    143 Time=  6.55000E+00 Dt=  5.00000E-02 [y] snes_conv_reason:   11
  newton =   1 [     152] linear =   129 [     19355] cuts =  0 [   0]
  --> max chng: dpmx=   7.5507E-01 dtmpmx=   4.2085E-02

== TH FLOW =====================================================================
 Step    144 Time=  6.60000E+00 Dt=  5.00000E-02 [y] snes_conv_reason:   11
  newton =   1 [     153] linear =   130 [     19485] cuts =  0 [   0]
  --> max chng: dpmx=   7.0512E-01 dtmpmx=   4.1305E-02

== TH FLOW =====================================================================
 Step    145 Time=  6.65000E+00 Dt=  5.00000E-02 [y] snes_conv_reason:   11
  newton =   1 [     154] linear =   127 [     19612] cuts =  0 [   0]
  --> max chng: dpmx=   6.5560E-01 dtmpmx=   4.0294E-02

== TH FLOW =====================================================================
 Step    146 Time=  6.70000E+00 Dt=  5.00000E-02 [y] snes_conv_reason:   11
  newton =   1 [     155] linear =   132 [     19744] cuts =  0 [   0]
  --> max chng: dpmx=   6.0701E-01 dtmpmx=   3.9109E-02

== TH FLOW =====================================================================
 Step    147 Time=  6.75000E+00 Dt=  5.00000E-02 [y] snes_conv_reason:   11
  newton =   1 [     156] linear =   130 [     19874] cuts =  0 [   0]
  --> max chng: dpmx=   5.5960E-01 dtmpmx=   3.7825E-02

== TH FLOW =====================================================================
 Step    148 Time=  6.80000E+00 Dt=  5.00000E-02 [y] snes_conv_reason:   11
  newton =   1 [     157] linear =   132 [     20006] cuts =  0 [   0]
  --> max chng: dpmx=   5.1386E-01 dtmpmx=   3.6371E-02

== TH FLOW =====================================================================
 Step    149 Time=  6.85000E+00 Dt=  5.00000E-02 [y] snes_conv_reason:   11
  newton =   1 [     158] linear =   131 [     20137] cuts =  0 [   0]
  --> max chng: dpmx=   4.6977E-01 dtmpmx=   3.4772E-02

== TH FLOW =====================================================================
 Step    150 Time=  6.90000E+00 Dt=  5.00000E-02 [y] snes_conv_reason:   11
  newton =   1 [     159] linear =   133 [     20270] cuts =  0 [   0]
  --> max chng: dpmx=   4.2758E-01 dtmpmx=   3.3056E-02

== TH FLOW =====================================================================
 Step    151 Time=  6.95000E+00 Dt=  5.00000E-02 [y] snes_conv_reason:   11
  newton =   1 [     160] linear =   134 [     20404] cuts =  0 [   0]
  --> max chng: dpmx=   3.8767E-01 dtmpmx=   3.1251E-02

== TH FLOW =====================================================================
 Step    152 Time=  7.00000E+00 Dt=  5.00000E-02 [y] snes_conv_reason:   11
  newton =   1 [     161] linear =   135 [     20539] cuts =  0 [   0]
  --> max chng: dpmx=   3.4994E-01 dtmpmx=   2.9384E-02

== TH FLOW =====================================================================
 Step    153 Time=  7.05000E+00 Dt=  5.00000E-02 [y] snes_conv_reason:   11
  newton =   1 [     162] linear =   133 [     20672] cuts =  0 [   0]
  --> max chng: dpmx=   3.1455E-01 dtmpmx=   2.7480E-02

== TH FLOW =====================================================================
 Step    154 Time=  7.10000E+00 Dt=  5.00000E-02 [y] snes_conv_reason:   11
  newton =   1 [     163] linear =   135 [     20807] cuts =  0 [   0]
  --> max chng: dpmx=   2.8156E-01 dtmpmx=   2.5564E-02

== TH FLOW =====================================================================
 Step    155 Time=  7.15000E+00 Dt=  5.00000E-02 [y] snes_conv_reason:   11
  newton =   1 [     164] linear =   133 [     20940] cuts =  0 [   0]
  --> max chng: dpmx=   2.5096E-01 dtmpmx=   2.3659E-02

== TH FLOW =====================================================================
 Step    156 Time=  7.20000E+00 Dt=  5.00000E-02 [y] snes_conv_reason:   11
  newton =   1 [     165] linear =   133 [     21073] cuts =  0 [   0]
  --> max chng: dpmx=   2.2269E-01 dtmpmx=   2.1784E-02

== TH FLOW =====================================================================
 Step    157 Time=  7.25000E+00 Dt=  5.00000E-02 [y] snes_conv_reason:   11
  newton =   1 [     166] linear =   134 [     21207] cuts =  0 [   0]
  --> max chng: dpmx=   1.9688E-01 dtmpmx=   1.9958E-02

== TH FLOW =====================================================================
 Step    158 Time=  7.30000E+00 Dt=  5.00000E-02 [y] snes_conv_reason:   11
  newton =   1 [     167] linear =   134 [     21341] cuts =  0 [   0]
  --> max chng: dpmx=   1.7329E-01 dtmpmx=   1.8195E-02

== TH FLOW =====================================================================
 Step    159 Time=  7.35000E+00 Dt=  5.00000E-02 [y] snes_conv_reason:   11
  newton =   1 [     168] linear =   137 [     21478] cuts =  0 [   0]
  --> max chng: dpmx=   1.5185E-01 dtmpmx=   1.6507E-02

== TH FLOW =====================================================================
 Step    160 Time=  7.40000E+00 Dt=  5.00000E-02 [y] snes_conv_reason:   11
  newton =   1 [     169] linear =   135 [     21613] cuts =  0 [   0]
  --> max chng: dpmx=   1.3256E-01 dtmpmx=   1.4904E-02

== TH FLOW =====================================================================
 Step    161 Time=  7.45000E+00 Dt=  5.00000E-02 [y] snes_conv_reason:   11
  newton =   1 [     170] linear =   135 [     21748] cuts =  0 [   0]
  --> max chng: dpmx=   1.1522E-01 dtmpmx=   1.3394E-02

== TH FLOW =====================================================================
 Step    162 Time=  7.50000E+00 Dt=  5.00000E-02 [y] snes_conv_reason:   11
  newton =   1 [     171] linear =   136 [     21884] cuts =  0 [   0]
  --> max chng: dpmx=   9.9743E-02 dtmpmx=   1.1981E-02

== TH FLOW =====================================================================
 Step    163 Time=  7.55000E+00 Dt=  5.00000E-02 [y] snes_conv_reason:   11
  newton =   1 [     172] linear =   136 [     22020] cuts =  0 [   0]
  --> max chng: dpmx=   8.5974E-02 dtmpmx=   1.0668E-02

== TH FLOW =====================================================================
 Step    164 Time=  7.60000E+00 Dt=  5.00000E-02 [y] snes_conv_reason:   11
  newton =   1 [     173] linear =   137 [     22157] cuts =  0 [   0]
  --> max chng: dpmx=   7.3795E-02 dtmpmx=   9.4563E-03

== TH FLOW =====================================================================
 Step    165 Time=  7.65000E+00 Dt=  5.00000E-02 [y] snes_conv_reason:   11
  newton =   1 [     174] linear =   137 [     22294] cuts =  0 [   0]
  --> max chng: dpmx=   6.3077E-02 dtmpmx=   8.3446E-03

== TH FLOW =====================================================================
 Step    166 Time=  7.70000E+00 Dt=  5.00000E-02 [y] snes_conv_reason:   11
  newton =   1 [     175] linear =   136 [     22430] cuts =  0 [   0]
  --> max chng: dpmx=   5.3696E-02 dtmpmx=   7.3309E-03

== TH FLOW =====================================================================
 Step    167 Time=  7.75000E+00 Dt=  5.00000E-02 [y] snes_conv_reason:   11
  newton =   1 [     176] linear =   138 [     22568] cuts =  0 [   0]
  --> max chng: dpmx=   4.5490E-02 dtmpmx=   6.4121E-03

== TH FLOW =====================================================================
 Step    168 Time=  7.80000E+00 Dt=  5.00000E-02 [y] snes_conv_reason:   11
  newton =   1 [     177] linear =   140 [     22708] cuts =  0 [   0]
  --> max chng: dpmx=   3.8390E-02 dtmpmx=   5.5840E-03

== TH FLOW =====================================================================
 Step    169 Time=  7.85000E+00 Dt=  5.00000E-02 [y] snes_conv_reason:   11
  newton =   1 [     178] linear =   140 [     22848] cuts =  0 [   0]
  --> max chng: dpmx=   3.2263E-02 dtmpmx=   4.8416E-03

== TH FLOW =====================================================================
 Step    170 Time=  7.90000E+00 Dt=  5.00000E-02 [y] snes_conv_reason:   11
  newton =   1 [     179] linear =   138 [     22986] cuts =  0 [   0]
  --> max chng: dpmx=   2.6972E-02 dtmpmx=   4.1796E-03

== TH FLOW =====================================================================
 Step    171 Time=  7.95000E+00 Dt=  5.00000E-02 [y] snes_conv_reason:   11
  newton =   1 [     180] linear =   137 [     23123] cuts =  0 [   0]
  --> max chng: dpmx=   2.2450E-02 dtmpmx=   3.5924E-03

== TH FLOW =====================================================================
 Step    172 Time=  8.00000E+00 Dt=  5.00000E-02 [y] snes_conv_reason:   11
  newton =   1 [     181] linear =   136 [     23259] cuts =  0 [   0]
  --> max chng: dpmx=   1.8600E-02 dtmpmx=   3.0742E-03

== TH FLOW =====================================================================
 Step    173 Time=  8.05000E+00 Dt=  5.00000E-02 [y] snes_conv_reason:   11
  newton =   1 [     182] linear =   135 [     23394] cuts =  0 [   0]
  --> max chng: dpmx=   1.5334E-02 dtmpmx=   2.6190E-03

== TH FLOW =====================================================================
 Step    174 Time=  8.10000E+00 Dt=  5.00000E-02 [y] snes_conv_reason:   11
  newton =   1 [     183] linear =   136 [     23530] cuts =  0 [   0]
  --> max chng: dpmx=   1.2574E-02 dtmpmx=   2.2212E-03

== TH FLOW =====================================================================
 Step    175 Time=  8.15000E+00 Dt=  5.00000E-02 [y] snes_conv_reason:   11
  newton =   1 [     184] linear =   138 [     23668] cuts =  0 [   0]
  --> max chng: dpmx=   1.0255E-02 dtmpmx=   1.8751E-03

== TH FLOW =====================================================================
 Step    176 Time=  8.20000E+00 Dt=  5.00000E-02 [y] snes_conv_reason:   11
  newton =   1 [     185] linear =   140 [     23808] cuts =  0 [   0]
  --> max chng: dpmx=   8.3161E-03 dtmpmx=   1.5754E-03

== TH FLOW =====================================================================
 Step    177 Time=  8.25000E+00 Dt=  5.00000E-02 [y] snes_conv_reason:   11
  newton =   1 [     186] linear =   139 [     23947] cuts =  0 [   0]
  --> max chng: dpmx=   6.7009E-03 dtmpmx=   1.3171E-03

== TH FLOW =====================================================================
 Step    178 Time=  8.30000E+00 Dt=  5.00000E-02 [y] snes_conv_reason:   11
  newton =   1 [     187] linear =   137 [     24084] cuts =  0 [   0]
  --> max chng: dpmx=   5.3652E-03 dtmpmx=   1.0954E-03

== TH FLOW =====================================================================
 Step    179 Time=  8.35000E+00 Dt=  5.00000E-02 [y] snes_conv_reason:   11
  newton =   1 [     188] linear =   137 [     24221] cuts =  0 [   0]
  --> max chng: dpmx=   4.2638E-03 dtmpmx=   9.0592E-04

== TH FLOW =====================================================================
 Step    180 Time=  8.40000E+00 Dt=  5.00000E-02 [y] snes_conv_reason:   11
  newton =   1 [     189] linear =   136 [     24357] cuts =  0 [   0]
  --> max chng: dpmx=   3.3617E-03 dtmpmx=   7.4472E-04

== TH FLOW =====================================================================
 Step    181 Time=  8.45000E+00 Dt=  5.00000E-02 [y] snes_conv_reason:   11
  newton =   1 [     190] linear =   134 [     24491] cuts =  0 [   0]
  --> max chng: dpmx=   2.6270E-03 dtmpmx=   6.0814E-04

== TH FLOW =====================================================================
 Step    182 Time=  8.50000E+00 Dt=  5.00000E-02 [y] snes_conv_reason:   11
  newton =   1 [     191] linear =   136 [     24627] cuts =  0 [   0]
  --> max chng: dpmx=   2.7821E-03 dtmpmx=   4.9290E-04

== TH FLOW =====================================================================
 Step    183 Time=  8.55000E+00 Dt=  5.00000E-02 [y] snes_conv_reason:   11
  newton =   1 [     192] linear =   134 [     24761] cuts =  0 [   0]
  --> max chng: dpmx=   3.0076E-03 dtmpmx=   3.9604E-04

== TH FLOW =====================================================================
 Step    184 Time=  8.60000E+00 Dt=  5.00000E-02 [y] snes_conv_reason:   11
  newton =   1 [     193] linear =   123 [     24884] cuts =  0 [   0]
  --> max chng: dpmx=   3.1973E-03 dtmpmx=   3.1497E-04

== TH FLOW =====================================================================
 Step    185 Time=  8.65000E+00 Dt=  5.00000E-02 [y] snes_conv_reason:   11
  newton =   1 [     194] linear =   137 [     25021] cuts =  0 [   0]
  --> max chng: dpmx=   3.3555E-03 dtmpmx=   2.4738E-04

== TH FLOW =====================================================================
 Step    186 Time=  8.70000E+00 Dt=  5.00000E-02 [y] snes_conv_reason:   11
  newton =   1 [     195] linear =   130 [     25151] cuts =  0 [   0]
  --> max chng: dpmx=   3.4860E-03 dtmpmx=   1.9123E-04

== TH FLOW =====================================================================
 Step    187 Time=  8.75000E+00 Dt=  5.00000E-02 [y] snes_conv_reason:   11
  newton =   1 [     196] linear =   133 [     25284] cuts =  0 [   0]
  --> max chng: dpmx=   3.5942E-03 dtmpmx=   1.4477E-04

== TH FLOW =====================================================================
 Step    188 Time=  8.80000E+00 Dt=  5.00000E-02 [y] snes_conv_reason:   11
  newton =   1 [     197] linear =   125 [     25409] cuts =  0 [   0]
  --> max chng: dpmx=   3.6813E-03 dtmpmx=   1.0646E-04

== TH FLOW =====================================================================
 Step    189 Time=  8.85000E+00 Dt=  5.00000E-02 [y] snes_conv_reason:   11
  newton =   1 [     198] linear =   124 [     25533] cuts =  0 [   0]
  --> max chng: dpmx=   3.7520E-03 dtmpmx=   7.4978E-05

== TH FLOW =====================================================================
 Step    190 Time=  8.90000E+00 Dt=  5.00000E-02 [y] snes_conv_reason:   11
  newton =   1 [     199] linear =   115 [     25648] cuts =  0 [   0]
  --> max chng: dpmx=   3.8086E-03 dtmpmx=   6.8451E-05

== TH FLOW =====================================================================
 Step    191 Time=  8.95000E+00 Dt=  5.00000E-02 [y] snes_conv_reason:   11
  newton =   1 [     200] linear =   120 [     25768] cuts =  0 [   0]
  --> max chng: dpmx=   3.8529E-03 dtmpmx=   6.8245E-05

== TH FLOW =====================================================================
 Step    192 Time=  9.00000E+00 Dt=  5.00000E-02 [y] snes_conv_reason:   11
  newton =   1 [     201] linear =   129 [     25897] cuts =  0 [   0]
  --> max chng: dpmx=   3.8878E-03 dtmpmx=   6.8159E-05

== TH FLOW =====================================================================
 Step    193 Time=  9.05000E+00 Dt=  5.00000E-02 [y] snes_conv_reason:   11
  newton =   1 [     202] linear =   121 [     26018] cuts =  0 [   0]
  --> max chng: dpmx=   3.9137E-03 dtmpmx=   6.8106E-05

== TH FLOW =====================================================================
 Step    194 Time=  9.10000E+00 Dt=  5.00000E-02 [y] snes_conv_reason:   11
  newton =   1 [     203] linear =   122 [     26140] cuts =  0 [   0]
  --> max chng: dpmx=   3.9325E-03 dtmpmx=   6.8050E-05

== TH FLOW =====================================================================
 Step    195 Time=  9.15000E+00 Dt=  5.00000E-02 [y] snes_conv_reason:   11
  newton =   1 [     204] linear =   129 [     26269] cuts =  0 [   0]
  --> max chng: dpmx=   3.9453E-03 dtmpmx=   6.7993E-05

== TH FLOW =====================================================================
 Step    196 Time=  9.20000E+00 Dt=  5.00000E-02 [y] snes_conv_reason:   11
  newton =   1 [     205] linear =   117 [     26386] cuts =  0 [   0]
  --> max chng: dpmx=   3.9534E-03 dtmpmx=   6.7932E-05

== TH FLOW =====================================================================
 Step    197 Time=  9.25000E+00 Dt=  5.00000E-02 [y] snes_conv_reason:   11
  newton =   1 [     206] linear =   124 [     26510] cuts =  0 [   0]
  --> max chng: dpmx=   3.9564E-03 dtmpmx=   6.7869E-05

== TH FLOW =====================================================================
 Step    198 Time=  9.30000E+00 Dt=  5.00000E-02 [y] snes_conv_reason:   11
  newton =   1 [     207] linear =   116 [     26626] cuts =  0 [   0]
  --> max chng: dpmx=   3.9564E-03 dtmpmx=   6.7803E-05

== TH FLOW =====================================================================
 Step    199 Time=  9.35000E+00 Dt=  5.00000E-02 [y] snes_conv_reason:   11
  newton =   1 [     208] linear =   113 [     26739] cuts =  0 [   0]
  --> max chng: dpmx=   3.9516E-03 dtmpmx=   6.7734E-05

== TH FLOW =====================================================================
 Step    200 Time=  9.40000E+00 Dt=  5.00000E-02 [y] snes_conv_reason:   11
  newton =   1 [     209] linear =   125 [     26864] cuts =  0 [   0]
  --> max chng: dpmx=   3.9451E-03 dtmpmx=   6.7663E-05

== TH FLOW =====================================================================
 Step    201 Time=  9.45000E+00 Dt=  5.00000E-02 [y] snes_conv_reason:   11
  newton =   1 [     210] linear =   122 [     26986] cuts =  0 [   0]
  --> max chng: dpmx=   3.9354E-03 dtmpmx=   6.7590E-05

== TH FLOW =====================================================================
 Step    202 Time=  9.50000E+00 Dt=  5.00000E-02 [y] snes_conv_reason:   11
  newton =   1 [     211] linear =   121 [     27107] cuts =  0 [   0]
  --> max chng: dpmx=   3.9226E-03 dtmpmx=   6.7515E-05

== TH FLOW =====================================================================
 Step    203 Time=  9.55000E+00 Dt=  5.00000E-02 [y] snes_conv_reason:   11
  newton =   1 [     212] linear =   119 [     27226] cuts =  0 [   0]
  --> max chng: dpmx=   3.9091E-03 dtmpmx=   6.7437E-05

== TH FLOW =====================================================================
 Step    204 Time=  9.60000E+00 Dt=  5.00000E-02 [y] snes_conv_reason:   11
  newton =   1 [     213] linear =   119 [     27345] cuts =  0 [   0]
  --> max chng: dpmx=   3.8916E-03 dtmpmx=   6.7359E-05

== TH FLOW =====================================================================
 Step    205 Time=  9.65000E+00 Dt=  5.00000E-02 [y] snes_conv_reason:   11
  newton =   1 [     214] linear =   114 [     27459] cuts =  0 [   0]
  --> max chng: dpmx=   3.8720E-03 dtmpmx=   6.7279E-05

== TH FLOW =====================================================================
 Step    206 Time=  9.70000E+00 Dt=  5.00000E-02 [y] snes_conv_reason:   11
  newton =   1 [     215] linear =   119 [     27578] cuts =  0 [   0]
  --> max chng: dpmx=   3.8526E-03 dtmpmx=   6.7197E-05

== TH FLOW =====================================================================
 Step    207 Time=  9.75000E+00 Dt=  5.00000E-02 [y] snes_conv_reason:   11
  newton =   1 [     216] linear =   117 [     27695] cuts =  0 [   0]
  --> max chng: dpmx=   3.8290E-03 dtmpmx=   6.7114E-05

== TH FLOW =====================================================================
 Step    208 Time=  9.80000E+00 Dt=  5.00000E-02 [y] snes_conv_reason:   11
  newton =   1 [     217] linear =   118 [     27813] cuts =  0 [   0]
  --> max chng: dpmx=   3.8044E-03 dtmpmx=   6.7029E-05

== TH FLOW =====================================================================
 Step    209 Time=  9.85000E+00 Dt=  5.00000E-02 [y] snes_conv_reason:   11
  newton =   1 [     218] linear =   114 [     27927] cuts =  0 [   0]
  --> max chng: dpmx=   3.7780E-03 dtmpmx=   6.6942E-05

== TH FLOW =====================================================================
 Step    210 Time=  9.90000E+00 Dt=  5.00000E-02 [y] snes_conv_reason:   11
  newton =   1 [     219] linear =   124 [     28051] cuts =  0 [   0]
  --> max chng: dpmx=   3.7493E-03 dtmpmx=   6.6854E-05

== TH FLOW =====================================================================
 Step    211 Time=  9.95000E+00 Dt=  5.00000E-02 [y] snes_conv_reason:   11
  newton =   1 [     220] linear =   125 [     28176] cuts =  0 [   0]
  --> max chng: dpmx=   3.7193E-03 dtmpmx=   6.6765E-05

== TH FLOW =====================================================================
 Step    212 Time=  1.00000E+01 Dt=  5.00000E-02 [y] snes_conv_reason:   11
  newton =   1 [     221] linear =   121 [     28297] cuts =  0 [   0]
  --> max chng: dpmx=   3.6880E-03 dtmpmx=   6.6675E-05

== TH FLOW =====================================================================
 Step    213 Time=  1.00500E+01 Dt=  5.00000E-02 [y] snes_conv_reason:   11
  newton =   1 [     222] linear =   122 [     28419] cuts =  0 [   0]
  --> max chng: dpmx=   3.6536E-03 dtmpmx=   6.6584E-05

== TH FLOW =====================================================================
 Step    214 Time=  1.01000E+01 Dt=  5.00000E-02 [y] snes_conv_reason:   11
  newton =   1 [     223] linear =   119 [     28538] cuts =  0 [   0]
  --> max chng: dpmx=   3.6187E-03 dtmpmx=   6.6492E-05

== TH FLOW =====================================================================
 Step    215 Time=  1.01500E+01 Dt=  5.00000E-02 [y] snes_conv_reason:   11
  newton =   1 [     224] linear =   121 [     28659] cuts =  0 [   0]
  --> max chng: dpmx=   3.5812E-03 dtmpmx=   6.6399E-05

== TH FLOW =====================================================================
 Step    216 Time=  1.02000E+01 Dt=  5.00000E-02 [y] snes_conv_reason:   11
  newton =   1 [     225] linear =   121 [     28780] cuts =  0 [   0]
  --> max chng: dpmx=   3.5426E-03 dtmpmx=   6.6305E-05

== TH FLOW =====================================================================
 Step    217 Time=  1.02500E+01 Dt=  5.00000E-02 [y] snes_conv_reason:   11
  newton =   1 [     226] linear =   120 [     28900] cuts =  0 [   0]
  --> max chng: dpmx=   3.5021E-03 dtmpmx=   6.6211E-05

== TH FLOW =====================================================================
 Step    218 Time=  1.03000E+01 Dt=  5.00000E-02 [y] snes_conv_reason:   11
  newton =   1 [     227] linear =   118 [     29018] cuts =  0 [   0]
  --> max chng: dpmx=   3.4602E-03 dtmpmx=   6.6115E-05

== TH FLOW =====================================================================
 Step    219 Time=  1.03500E+01 Dt=  5.00000E-02 [y] snes_conv_reason:   11
  newton =   1 [     228] linear =   117 [     29135] cuts =  0 [   0]
  --> max chng: dpmx=   3.4163E-03 dtmpmx=   6.6019E-05

== TH FLOW =====================================================================
 Step    220 Time=  1.04000E+01 Dt=  5.00000E-02 [y] snes_conv_reason:   11
  newton =   1 [     229] linear =   106 [     29241] cuts =  0 [   0]
  --> max chng: dpmx=   3.3710E-03 dtmpmx=   6.5922E-05

== TH FLOW =====================================================================
 Step    221 Time=  1.04500E+01 Dt=  5.00000E-02 [y] snes_conv_reason:   11
  newton =   1 [     230] linear =   113 [     29354] cuts =  0 [   0]
  --> max chng: dpmx=   3.3244E-03 dtmpmx=   6.5824E-05

== TH FLOW =====================================================================
 Step    222 Time=  1.05000E+01 Dt=  5.00000E-02 [y] snes_conv_reason:   11
  newton =   1 [     231] linear =   114 [     29468] cuts =  0 [   0]
  --> max chng: dpmx=   3.2756E-03 dtmpmx=   6.5726E-05

== TH FLOW =====================================================================
 Step    223 Time=  1.05500E+01 Dt=  5.00000E-02 [y] snes_conv_reason:   11
  newton =   1 [     232] linear =   112 [     29580] cuts =  0 [   0]
  --> max chng: dpmx=   3.2256E-03 dtmpmx=   6.5627E-05

== TH FLOW =====================================================================
 Step    224 Time=  1.06000E+01 Dt=  5.00000E-02 [y] snes_conv_reason:   11
  newton =   1 [     233] linear =   110 [     29690] cuts =  0 [   0]
  --> max chng: dpmx=   3.1742E-03 dtmpmx=   6.5527E-05

== TH FLOW =====================================================================
 Step    225 Time=  1.06500E+01 Dt=  5.00000E-02 [y] snes_conv_reason:   11
  newton =   1 [     234] linear =   117 [     29807] cuts =  0 [   0]
  --> max chng: dpmx=   3.1209E-03 dtmpmx=   6.5428E-05

== TH FLOW =====================================================================
 Step    226 Time=  1.07000E+01 Dt=  5.00000E-02 [y] snes_conv_reason:   11
  newton =   1 [     235] linear =   116 [     29923] cuts =  0 [   0]
  --> max chng: dpmx=   3.0672E-03 dtmpmx=   6.5328E-05

== TH FLOW =====================================================================
 Step    227 Time=  1.07500E+01 Dt=  5.00000E-02 [y] snes_conv_reason:   11
  newton =   1 [     236] linear =   115 [     30038] cuts =  0 [   0]
  --> max chng: dpmx=   3.0112E-03 dtmpmx=   6.5228E-05

== TH FLOW =====================================================================
 Step    228 Time=  1.08000E+01 Dt=  5.00000E-02 [y] snes_conv_reason:   11
  newton =   1 [     237] linear =   113 [     30151] cuts =  0 [   0]
  --> max chng: dpmx=   2.9547E-03 dtmpmx=   6.5127E-05

== TH FLOW =====================================================================
 Step    229 Time=  1.08500E+01 Dt=  5.00000E-02 [y] snes_conv_reason:   11
  newton =   1 [     238] linear =   105 [     30256] cuts =  0 [   0]
  --> max chng: dpmx=   2.8955E-03 dtmpmx=   6.5026E-05

== TH FLOW =====================================================================
 Step    230 Time=  1.09000E+01 Dt=  5.00000E-02 [y] snes_conv_reason:   11
  newton =   1 [     239] linear =   104 [     30360] cuts =  0 [   0]
  --> max chng: dpmx=   2.8366E-03 dtmpmx=   6.4925E-05

== TH FLOW =====================================================================
 Step    231 Time=  1.09500E+01 Dt=  5.00000E-02 [y] snes_conv_reason:   11
  newton =   1 [     240] linear =   110 [     30470] cuts =  0 [   0]
  --> max chng: dpmx=   2.7754E-03 dtmpmx=   6.4823E-05

== TH FLOW =====================================================================
 Step    232 Time=  1.10000E+01 Dt=  5.00000E-02 [y] snes_conv_reason:   11
  newton =   1 [     241] linear =   110 [     30580] cuts =  0 [   0]
  --> max chng: dpmx=   2.7144E-03 dtmpmx=   6.4710E-05

== TH FLOW =====================================================================
 Step    233 Time=  1.10500E+01 Dt=  5.00000E-02 [y] snes_conv_reason:   11
  newton =   1 [     242] linear =   113 [     30693] cuts =  0 [   0]
  --> max chng: dpmx=   2.6508E-03 dtmpmx=   6.4565E-05

== TH FLOW =====================================================================
 Step    234 Time=  1.11000E+01 Dt=  5.00000E-02 [y] snes_conv_reason:   11
  newton =   1 [     243] linear =   114 [     30807] cuts =  0 [   0]
  --> max chng: dpmx=   2.5877E-03 dtmpmx=   6.4376E-05

== TH FLOW =====================================================================
 Step    235 Time=  1.11500E+01 Dt=  5.00000E-02 [y] snes_conv_reason:   11
  newton =   1 [     244] linear =   114 [     30921] cuts =  0 [   0]
  --> max chng: dpmx=   2.5223E-03 dtmpmx=   6.4141E-05

== TH FLOW =====================================================================
 Step    236 Time=  1.12000E+01 Dt=  5.00000E-02 [y] snes_conv_reason:   11
  newton =   1 [     245] linear =   119 [     31040] cuts =  0 [   0]
  --> max chng: dpmx=   2.4577E-03 dtmpmx=   6.3856E-05

== TH FLOW =====================================================================
 Step    237 Time=  1.12500E+01 Dt=  5.00000E-02 [y] snes_conv_reason:   11
  newton =   1 [     246] linear =   113 [     31153] cuts =  0 [   0]
  --> max chng: dpmx=   2.3914E-03 dtmpmx=   6.3521E-05

== TH FLOW =====================================================================
 Step    238 Time=  1.13000E+01 Dt=  5.00000E-02 [y] snes_conv_reason:   11
  newton =   1 [     247] linear =   120 [     31273] cuts =  0 [   0]
  --> max chng: dpmx=   2.3243E-03 dtmpmx=   6.3133E-05

== TH FLOW =====================================================================
 Step    239 Time=  1.13500E+01 Dt=  5.00000E-02 [y] snes_conv_reason:   11
  newton =   1 [     248] linear =   106 [     31379] cuts =  0 [   0]
  --> max chng: dpmx=   2.2574E-03 dtmpmx=   6.2690E-05

== TH FLOW =====================================================================
 Step    240 Time=  1.14000E+01 Dt=  5.00000E-02 [y] snes_conv_reason:   11
  newton =   1 [     249] linear =   125 [     31504] cuts =  0 [   0]
  --> max chng: dpmx=   2.1892E-03 dtmpmx=   6.2191E-05

== TH FLOW =====================================================================
 Step    241 Time=  1.14500E+01 Dt=  5.00000E-02 [y] snes_conv_reason:   11
  newton =   1 [     250] linear =   123 [     31627] cuts =  0 [   0]
  --> max chng: dpmx=   2.1217E-03 dtmpmx=   6.1634E-05

== TH FLOW =====================================================================
 Step    242 Time=  1.15000E+01 Dt=  5.00000E-02 [y] snes_conv_reason:   11
  newton =   1 [     251] linear =   116 [     31743] cuts =  0 [   0]
  --> max chng: dpmx=   2.0530E-03 dtmpmx=   6.1017E-05

== TH FLOW =====================================================================
 Step    243 Time=  1.15500E+01 Dt=  5.00000E-02 [y] snes_conv_reason:   11
  newton =   1 [     252] linear =   122 [     31865] cuts =  0 [   0]
  --> max chng: dpmx=   1.9849E-03 dtmpmx=   6.0341E-05

== TH FLOW =====================================================================
 Step    244 Time=  1.16000E+01 Dt=  5.00000E-02 [y] snes_conv_reason:   11
  newton =   1 [     253] linear =   122 [     31987] cuts =  0 [   0]
  --> max chng: dpmx=   1.9162E-03 dtmpmx=   5.9604E-05

== TH FLOW =====================================================================
 Step    245 Time=  1.16500E+01 Dt=  5.00000E-02 [y] snes_conv_reason:   11
  newton =   1 [     254] linear =   124 [     32111] cuts =  0 [   0]
  --> max chng: dpmx=   1.8482E-03 dtmpmx=   5.8806E-05

== TH FLOW =====================================================================
 Step    246 Time=  1.17000E+01 Dt=  5.00000E-02 [y] snes_conv_reason:   11
  newton =   1 [     255] linear =   126 [     32237] cuts =  0 [   0]
  --> max chng: dpmx=   1.7803E-03 dtmpmx=   5.7948E-05

== TH FLOW =====================================================================
 Step    247 Time=  1.17500E+01 Dt=  5.00000E-02 [y] snes_conv_reason:   11
  newton =   1 [     256] linear =   125 [     32362] cuts =  0 [   0]
  --> max chng: dpmx=   1.7123E-03 dtmpmx=   5.7030E-05

== TH FLOW =====================================================================
 Step    248 Time=  1.18000E+01 Dt=  5.00000E-02 [y] snes_conv_reason:   11
  newton =   1 [     257] linear =   125 [     32487] cuts =  0 [   0]
  --> max chng: dpmx=   1.6451E-03 dtmpmx=   5.6052E-05

== TH FLOW =====================================================================
 Step    249 Time=  1.18500E+01 Dt=  5.00000E-02 [y] snes_conv_reason:   11
  newton =   1 [     258] linear =   129 [     32616] cuts =  0 [   0]
  --> max chng: dpmx=   1.5784E-03 dtmpmx=   5.5016E-05

== TH FLOW =====================================================================
 Step    250 Time=  1.19000E+01 Dt=  5.00000E-02 [y] snes_conv_reason:   11
  newton =   1 [     259] linear =   126 [     32742] cuts =  0 [   0]
  --> max chng: dpmx=   1.5126E-03 dtmpmx=   5.3924E-05

== TH FLOW =====================================================================
 Step    251 Time=  1.19500E+01 Dt=  5.00000E-02 [y] snes_conv_reason:   11
  newton =   1 [     260] linear =   129 [     32871] cuts =  0 [   0]
  --> max chng: dpmx=   1.4466E-03 dtmpmx=   5.2777E-05

== TH FLOW =====================================================================
 Step    252 Time=  1.20000E+01 Dt=  5.00000E-02 [y] snes_conv_reason:   11
  newton =   1 [     261] linear =   128 [     32999] cuts =  0 [   0]
  --> max chng: dpmx=   1.3826E-03 dtmpmx=   5.1579E-05

== TH FLOW =====================================================================
 Step    253 Time=  1.20500E+01 Dt=  5.00000E-02 [y] snes_conv_reason:   11
  newton =   1 [     262] linear =   126 [     33125] cuts =  0 [   0]
  --> max chng: dpmx=   1.3190E-03 dtmpmx=   5.0331E-05

== TH FLOW =====================================================================
 Step    254 Time=  1.21000E+01 Dt=  5.00000E-02 [y] snes_conv_reason:   11
  newton =   1 [     263] linear =   126 [     33251] cuts =  0 [   0]
  --> max chng: dpmx=   1.2565E-03 dtmpmx=   4.9048E-05

== TH FLOW =====================================================================
 Step    255 Time=  1.21500E+01 Dt=  5.00000E-02 [y] snes_conv_reason:   11
  newton =   1 [     264] linear =   125 [     33376] cuts =  0 [   0]
  --> max chng: dpmx=   1.1957E-03 dtmpmx=   4.7752E-05

== TH FLOW =====================================================================
 Step    256 Time=  1.22000E+01 Dt=  5.00000E-02 [y] snes_conv_reason:   11
  newton =   1 [     265] linear =   131 [     33507] cuts =  0 [   0]
  --> max chng: dpmx=   1.1354E-03 dtmpmx=   4.6415E-05

== TH FLOW =====================================================================
 Step    257 Time=  1.22500E+01 Dt=  5.00000E-02 [y] snes_conv_reason:   11
  newton =   1 [     266] linear =   129 [     33636] cuts =  0 [   0]
  --> max chng: dpmx=   1.0769E-03 dtmpmx=   4.5042E-05

[...]
 Step    493 Time=  2.40500E+01 Dt=  5.00000E-02 [y] snes_conv_reason:   11
  newton =   1 [     502] linear =   144 [     64208] cuts =  0 [   0]
  --> max chng: dpmx=   2.4447E-09 dtmpmx=   1.4375E-10

== TH FLOW =====================================================================
 Step    494 Time=  2.41000E+01 Dt=  5.00000E-02 [y] snes_conv_reason:   11
  newton =   1 [     503] linear =   135 [     64343] cuts =  0 [   0]
  --> max chng: dpmx=   2.3283E-09 dtmpmx=   1.2462E-10

== TH FLOW =====================================================================
 Step    495 Time=  2.41500E+01 Dt=  5.00000E-02 [y] snes_conv_reason:   11
  newton =   1 [     504] linear =   136 [     64479] cuts =  0 [   0]
  --> max chng: dpmx=   2.0955E-09 dtmpmx=   1.3309E-10

== TH FLOW =====================================================================
 Step    496 Time=  2.42000E+01 Dt=  5.00000E-02 [y] snes_conv_reason:   11
  newton =   1 [     505] linear =   137 [     64616] cuts =  0 [   0]
  --> max chng: dpmx=   1.9791E-09 dtmpmx=   1.2432E-10

== TH FLOW =====================================================================
 Step    497 Time=  2.42500E+01 Dt=  5.00000E-02 [y] snes_conv_reason:   11
  newton =   1 [     506] linear =   129 [     64745] cuts =  0 [   0]
  --> max chng: dpmx=   1.8626E-09 dtmpmx=   1.1902E-10

== TH FLOW =====================================================================
 Step    498 Time=  2.43000E+01 Dt=  5.00000E-02 [y] snes_conv_reason:   11
  newton =   1 [     507] linear =   131 [     64876] cuts =  0 [   0]
  --> max chng: dpmx=   1.7462E-09 dtmpmx=   1.2175E-10

== TH FLOW =====================================================================
 Step    499 Time=  2.43500E+01 Dt=  5.00000E-02 [y] snes_conv_reason:   11
  newton =   1 [     508] linear =   140 [     65016] cuts =  0 [   0]
  --> max chng: dpmx=   1.6298E-09 dtmpmx=   1.1689E-10

== TH FLOW =====================================================================
 Step    500 Time=  2.44000E+01 Dt=  5.00000E-02 [y] snes_conv_reason:   11
  newton =   1 [     509] linear =   133 [     65149] cuts =  0 [   0]
  --> max chng: dpmx=   1.5134E-09 dtmpmx=   1.0848E-10

== TH FLOW =====================================================================
 Step    501 Time=  2.44500E+01 Dt=  5.00000E-02 [y] snes_conv_reason:   11
  newton =   1 [     510] linear =   139 [     65288] cuts =  0 [   0]
  --> max chng: dpmx=   1.5134E-09 dtmpmx=   1.0001E-10

== TH FLOW =====================================================================
 Step    502 Time=  2.45000E+01 Dt=  5.00000E-02 [y] snes_conv_reason:   11
  newton =   1 [     511] linear =   130 [     65418] cuts =  0 [   0]
  --> max chng: dpmx=   1.3970E-09 dtmpmx=   1.0343E-10

== TH FLOW =====================================================================
 Step    503 Time=  2.45500E+01 Dt=  5.00000E-02 [y] snes_conv_reason:   11
  newton =   1 [     512] linear =   136 [     65554] cuts =  0 [   0]
  --> max chng: dpmx=   1.3970E-09 dtmpmx=   8.7967E-11

== TH FLOW =====================================================================
 Step    504 Time=  2.46000E+01 Dt=  5.00000E-02 [y] snes_conv_reason:   11
  newton =   1 [     513] linear =   138 [     65692] cuts =  0 [   0]
  --> max chng: dpmx=   1.2806E-09 dtmpmx=   9.4310E-11

== TH FLOW =====================================================================
 Step    505 Time=  2.46500E+01 Dt=  5.00000E-02 [y] snes_conv_reason:   11
  newton =   1 [     514] linear =   137 [     65829] cuts =  0 [   0]
  --> max chng: dpmx=   1.1642E-09 dtmpmx=   8.7047E-11

== TH FLOW =====================================================================
 Step    506 Time=  2.47000E+01 Dt=  5.00000E-02 [y] snes_conv_reason:   11
  newton =   1 [     515] linear =   133 [     65962] cuts =  0 [   0]
  --> max chng: dpmx=   1.0477E-09 dtmpmx=   9.0504E-11

== TH FLOW =====================================================================
 Step    507 Time=  2.47500E+01 Dt=  5.00000E-02 [y] snes_conv_reason:   11
  newton =   1 [     516] linear =   130 [     66092] cuts =  0 [   0]
  --> max chng: dpmx=   1.0477E-09 dtmpmx=   9.0965E-11

== TH FLOW =====================================================================
 Step    508 Time=  2.48000E+01 Dt=  5.00000E-02 [y] snes_conv_reason:   11
  newton =   1 [     517] linear =   123 [     66215] cuts =  0 [   0]
  --> max chng: dpmx=   9.3132E-10 dtmpmx=   8.7942E-11

== TH FLOW =====================================================================
 Step    509 Time=  2.48500E+01 Dt=  5.00000E-02 [y] snes_conv_reason:   11
  newton =   1 [     518] linear =   125 [     66340] cuts =  0 [   0]
  --> max chng: dpmx=   9.3132E-10 dtmpmx=   7.0434E-11

== TH FLOW =====================================================================
 Step    510 Time=  2.49000E+01 Dt=  5.00000E-02 [y] snes_conv_reason:   11
  newton =   1 [     519] linear =   127 [     66467] cuts =  0 [   0]
  --> max chng: dpmx=   9.3132E-10 dtmpmx=   7.2863E-11

== TH FLOW =====================================================================
 Step    511 Time=  2.49500E+01 Dt=  5.00000E-02 [y] snes_conv_reason:   11
  newton =   1 [     520] linear =   126 [     66593] cuts =  0 [   0]
  --> max chng: dpmx=   8.1491E-10 dtmpmx=   7.5083E-11

== TH FLOW =====================================================================
 Step    512 Time=  2.50000E+01 Dt=  5.00000E-02 [y] snes_conv_reason:   11
  newton =   1 [     521] linear =   125 [     66718] cuts =  0 [   0]
  --> max chng: dpmx=   6.9849E-10 dtmpmx=   7.6811E-11

== TH FLOW =====================================================================
 Step    513 Time=  2.50500E+01 Dt=  5.00000E-02 [y] snes_conv_reason:   11
  newton =   1 [     522] linear =   139 [     66857] cuts =  0 [   0]
  --> max chng: dpmx=   6.9849E-10 dtmpmx=   7.7518E-11

== TH FLOW =====================================================================
 Step    514 Time=  2.51000E+01 Dt=  5.00000E-02 [y] snes_conv_reason:   11
  newton =   1 [     523] linear =   125 [     66982] cuts =  0 [   0]
  --> max chng: dpmx=   6.9849E-10 dtmpmx=   8.3372E-11

== TH FLOW =====================================================================
 Step    515 Time=  2.51500E+01 Dt=  5.00000E-02 [y] snes_conv_reason:   11
  newton =   1 [     524] linear =   139 [     67121] cuts =  0 [   0]
  --> max chng: dpmx=   5.8208E-10 dtmpmx=   7.1507E-11

== TH FLOW =====================================================================
 Step    516 Time=  2.52000E+01 Dt=  5.00000E-02 [y] snes_conv_reason:   11
  newton =   1 [     525] linear =   130 [     67251] cuts =  0 [   0]
  --> max chng: dpmx=   5.8208E-10 dtmpmx=   8.4848E-11

== TH FLOW =====================================================================
 Step    517 Time=  2.52500E+01 Dt=  5.00000E-02 [y] snes_conv_reason:   11
  newton =   1 [     526] linear =   129 [     67380] cuts =  0 [   0]
  --> max chng: dpmx=   4.6566E-10 dtmpmx=   6.8985E-11

== TH FLOW =====================================================================
 Step    518 Time=  2.53000E+01 Dt=  5.00000E-02 [y] snes_conv_reason:   11
  newton =   1 [     527] linear =   127 [     67507] cuts =  0 [   0]
  --> max chng: dpmx=   4.6566E-10 dtmpmx=   7.1543E-11

== TH FLOW =====================================================================
 Step    519 Time=  2.53500E+01 Dt=  5.00000E-02 [y] snes_conv_reason:   11
  newton =   1 [     528] linear =   122 [     67629] cuts =  0 [   0]
  --> max chng: dpmx=   4.6566E-10 dtmpmx=   7.6863E-11

== TH FLOW =====================================================================
 Step    520 Time=  2.54000E+01 Dt=  5.00000E-02 [y] snes_conv_reason:   11
  newton =   1 [     529] linear =   118 [     67747] cuts =  0 [   0]
  --> max chng: dpmx=   4.6566E-10 dtmpmx=   6.7015E-11

== TH FLOW =====================================================================
 Step    521 Time=  2.54500E+01 Dt=  5.00000E-02 [y] snes_conv_reason:   11
  newton =   1 [     530] linear =   131 [     67878] cuts =  0 [   0]
  --> max chng: dpmx=   3.4925E-10 dtmpmx=   7.9764E-11

== TH FLOW =====================================================================
 Step    522 Time=  2.55000E+01 Dt=  5.00000E-02 [y] snes_conv_reason:   11
  newton =   1 [     531] linear =   123 [     68001] cuts =  0 [   0]
  --> max chng: dpmx=   3.4925E-10 dtmpmx=   8.1391E-11

== TH FLOW =====================================================================
 Step    523 Time=  2.55500E+01 Dt=  5.00000E-02 [y] snes_conv_reason:   11
  newton =   1 [     532] linear =   123 [     68124] cuts =  0 [   0]
  --> max chng: dpmx=   3.4925E-10 dtmpmx=   6.7347E-11

== TH FLOW =====================================================================
 Step    524 Time=  2.56000E+01 Dt=  5.00000E-02 [y] snes_conv_reason:   11
  newton =   1 [     533] linear =   131 [     68255] cuts =  0 [   0]
  --> max chng: dpmx=   3.4925E-10 dtmpmx=   7.9504E-11

== TH FLOW =====================================================================
 Step    525 Time=  2.56500E+01 Dt=  5.00000E-02 [y] snes_conv_reason:   11
  newton =   1 [     534] linear =   134 [     68389] cuts =  0 [   0]
  --> max chng: dpmx=   3.4925E-10 dtmpmx=   7.7859E-11

== TH FLOW =====================================================================
 Step    526 Time=  2.57000E+01 Dt=  5.00000E-02 [y] snes_conv_reason:   11
  newton =   1 [     535] linear =   127 [     68516] cuts =  0 [   0]
  --> max chng: dpmx=   3.4925E-10 dtmpmx=   7.2047E-11

== TH FLOW =====================================================================
 Step    527 Time=  2.57500E+01 Dt=  5.00000E-02 [y] snes_conv_reason:   11
  newton =   1 [     536] linear =   128 [     68644] cuts =  0 [   0]
  --> max chng: dpmx=   3.4925E-10 dtmpmx=   6.6429E-11

== TH FLOW =====================================================================
 Step    528 Time=  2.58000E+01 Dt=  5.00000E-02 [y] snes_conv_reason:   11
  newton =   1 [     537] linear =   136 [     68780] cuts =  0 [   0]
  --> max chng: dpmx=   2.3283E-10 dtmpmx=   7.4138E-11

== TH FLOW =====================================================================
 Step    529 Time=  2.58500E+01 Dt=  5.00000E-02 [y] snes_conv_reason:   11
  newton =   1 [     538] linear =   137 [     68917] cuts =  0 [   0]
  --> max chng: dpmx=   2.3283E-10 dtmpmx=   6.7949E-11

== TH FLOW =====================================================================
 Step    530 Time=  2.59000E+01 Dt=  5.00000E-02 [y] snes_conv_reason:   11
  newton =   1 [     539] linear =   114 [     69031] cuts =  0 [   0]
  --> max chng: dpmx=   2.3283E-10 dtmpmx=   7.3545E-11

== TH FLOW =====================================================================
 Step    531 Time=  2.59500E+01 Dt=  5.00000E-02 [y] snes_conv_reason:   11
  newton =   1 [     540] linear =   117 [     69148] cuts =  0 [   0]
  --> max chng: dpmx=   2.3283E-10 dtmpmx=   7.3197E-11

== TH FLOW =====================================================================
 Step    532 Time=  2.60000E+01 Dt=  5.00000E-02 [y] snes_conv_reason:   11
  newton =   1 [     541] linear =   124 [     69272] cuts =  0 [   0]
  --> max chng: dpmx=   2.3283E-10 dtmpmx=   6.6121E-11

== TH FLOW =====================================================================
 Step    533 Time=  2.60500E+01 Dt=  5.00000E-02 [y] snes_conv_reason:   11
  newton =   1 [     542] linear =   137 [     69409] cuts =  0 [   0]
  --> max chng: dpmx=   2.3283E-10 dtmpmx=   6.8216E-11

== TH FLOW =====================================================================
 Step    534 Time=  2.61000E+01 Dt=  5.00000E-02 [y] snes_conv_reason:   11
  newton =   1 [     543] linear =   109 [     69518] cuts =  0 [   0]
  --> max chng: dpmx=   2.3283E-10 dtmpmx=   7.3438E-11

== TH FLOW =====================================================================
 Step    535 Time=  2.61500E+01 Dt=  5.00000E-02 [y] snes_conv_reason:   11
  newton =   1 [     544] linear =   115 [     69633] cuts =  0 [   0]
  --> max chng: dpmx=   2.3283E-10 dtmpmx=   6.8351E-11

== TH FLOW =====================================================================
 Step    536 Time=  2.62000E+01 Dt=  5.00000E-02 [y] snes_conv_reason:   11
  newton =   1 [     545] linear =   113 [     69746] cuts =  0 [   0]
  --> max chng: dpmx=   1.1642E-10 dtmpmx=   7.4474E-11

== TH FLOW =====================================================================
 Step    537 Time=  2.62500E+01 Dt=  5.00000E-02 [y] snes_conv_reason:   11
  newton =   1 [     546] linear =    83 [     69829] cuts =  0 [   0]
  --> max chng: dpmx=   2.3283E-10 dtmpmx=   7.6851E-11

== TH FLOW =====================================================================
 Step    538 Time=  2.63000E+01 Dt=  5.00000E-02 [y] snes_conv_reason:   11
  newton =   1 [     547] linear =   119 [     69948] cuts =  0 [   0]
  --> max chng: dpmx=   2.3283E-10 dtmpmx=   8.7232E-11

== TH FLOW =====================================================================
 Step    539 Time=  2.63500E+01 Dt=  5.00000E-02 [y] snes_conv_reason:   11
  newton =   1 [     548] linear =    92 [     70040] cuts =  0 [   0]
  --> max chng: dpmx=   1.1642E-10 dtmpmx=   6.4039E-11

== TH FLOW =====================================================================
 Step    540 Time=  2.64000E+01 Dt=  5.00000E-02 [y] snes_conv_reason:   11
  newton =   1 [     549] linear =   115 [     70155] cuts =  0 [   0]
  --> max chng: dpmx=   2.3283E-10 dtmpmx=   7.7533E-11

== TH FLOW =====================================================================
 Step    541 Time=  2.64500E+01 Dt=  5.00000E-02 [y] snes_conv_reason:   11
  newton =   1 [     550] linear =    96 [     70251] cuts =  0 [   0]
  --> max chng: dpmx=   2.3283E-10 dtmpmx=   7.9137E-11

== TH FLOW =====================================================================
 Step    542 Time=  2.65000E+01 Dt=  5.00000E-02 [y] snes_conv_reason:   11
  newton =   1 [     551] linear =    99 [     70350] cuts =  0 [   0]
  --> max chng: dpmx=   1.1642E-10 dtmpmx=   7.0157E-11

== TH FLOW =====================================================================
 Step    543 Time=  2.65500E+01 Dt=  5.00000E-02 [y] snes_conv_reason:   11
  newton =   1 [     552] linear =   119 [     70469] cuts =  0 [   0]
  --> max chng: dpmx=   2.3283E-10 dtmpmx=   7.7302E-11

== TH FLOW =====================================================================
 Step    544 Time=  2.66000E+01 Dt=  5.00000E-02 [y] snes_conv_reason:   11
  newton =   1 [     553] linear =    92 [     70561] cuts =  0 [   0]
  --> max chng: dpmx=   2.3283E-10 dtmpmx=   7.2818E-11

== TH FLOW =====================================================================
 Step    545 Time=  2.66500E+01 Dt=  5.00000E-02 [y] snes_conv_reason:   11
  newton =   1 [     554] linear =   126 [     70687] cuts =  0 [   0]
  --> max chng: dpmx=   2.3283E-10 dtmpmx=   7.5021E-11

== TH FLOW =====================================================================
 Step    546 Time=  2.67000E+01 Dt=  5.00000E-02 [y] snes_conv_reason:   11
  newton =   1 [     555] linear =    97 [     70784] cuts =  0 [   0]
  --> max chng: dpmx=   2.3283E-10 dtmpmx=   7.4364E-11

== TH FLOW =====================================================================
 Step    547 Time=  2.67500E+01 Dt=  5.00000E-02 [y] snes_conv_reason:   11
  newton =   1 [     556] linear =   123 [     70907] cuts =  0 [   0]
  --> max chng: dpmx=   2.3283E-10 dtmpmx=   6.3395E-11

== TH FLOW =====================================================================
 Step    548 Time=  2.68000E+01 Dt=  5.00000E-02 [y] snes_conv_reason:   11
  newton =   1 [     557] linear =   110 [     71017] cuts =  0 [   0]
  --> max chng: dpmx=   2.3283E-10 dtmpmx=   6.9635E-11

== TH FLOW =====================================================================
 Step    549 Time=  2.68500E+01 Dt=  5.00000E-02 [y] snes_conv_reason:   11
  newton =   1 [     558] linear =   119 [     71136] cuts =  0 [   0]
  --> max chng: dpmx=   2.3283E-10 dtmpmx=   7.1260E-11

== TH FLOW =====================================================================
 Step    550 Time=  2.69000E+01 Dt=  5.00000E-02 [y] snes_conv_reason:   11
  newton =   1 [     559] linear =   116 [     71252] cuts =  0 [   0]
  --> max chng: dpmx=   2.3283E-10 dtmpmx=   7.3996E-11

== TH FLOW =====================================================================
 Step    551 Time=  2.69500E+01 Dt=  5.00000E-02 [y] snes_conv_reason:   11
  newton =   1 [     560] linear =   136 [     71388] cuts =  0 [   0]
  --> max chng: dpmx=   2.3283E-10 dtmpmx=   7.5584E-11

== TH FLOW =====================================================================
 Step    552 Time=  2.70000E+01 Dt=  5.00000E-02 [y] snes_conv_reason:   11
  newton =   1 [     561] linear =    86 [     71474] cuts =  0 [   0]
  --> max chng: dpmx=   2.3283E-10 dtmpmx=   7.1049E-11

== TH FLOW =====================================================================
 Step    553 Time=  2.70500E+01 Dt=  5.00000E-02 [y] snes_conv_reason:   11
  newton =   1 [     562] linear =    94 [     71568] cuts =  0 [   0]
  --> max chng: dpmx=   2.3283E-10 dtmpmx=   6.7823E-11

== TH FLOW =====================================================================
 Step    554 Time=  2.71000E+01 Dt=  5.00000E-02 [y] snes_conv_reason:   11
  newton =   1 [     563] linear =    84 [     71652] cuts =  0 [   0]
  --> max chng: dpmx=   2.3283E-10 dtmpmx=   7.9167E-11

== TH FLOW =====================================================================
 Step    555 Time=  2.71500E+01 Dt=  5.00000E-02 [y] snes_conv_reason:   11
  newton =   1 [     564] linear =    83 [     71735] cuts =  0 [   0]
  --> max chng: dpmx=   2.3283E-10 dtmpmx=   6.7780E-11

== TH FLOW =====================================================================
 Step    556 Time=  2.72000E+01 Dt=  5.00000E-02 [y] snes_conv_reason:   11
  newton =   1 [     565] linear =   110 [     71845] cuts =  0 [   0]
  --> max chng: dpmx=   2.3283E-10 dtmpmx=   6.4315E-11

== TH FLOW =====================================================================
 Step    557 Time=  2.72500E+01 Dt=  5.00000E-02 [y] snes_conv_reason:   11
  newton =   1 [     566] linear =   102 [     71947] cuts =  0 [   0]
  --> max chng: dpmx=   2.3283E-10 dtmpmx=   6.6647E-11

== TH FLOW =====================================================================
 Step    558 Time=  2.73000E+01 Dt=  5.00000E-02 [y] snes_conv_reason:   11
  newton =   1 [     567] linear =   111 [     72058] cuts =  0 [   0]
  --> max chng: dpmx=   2.3283E-10 dtmpmx=   6.8800E-11

== TH FLOW =====================================================================
 Step    559 Time=  2.73500E+01 Dt=  5.00000E-02 [y] snes_conv_reason:   11
  newton =   1 [     568] linear =   119 [     72177] cuts =  0 [   0]
  --> max chng: dpmx=   2.3283E-10 dtmpmx=   7.1731E-11

== TH FLOW =====================================================================
 Step    560 Time=  2.74000E+01 Dt=  5.00000E-02 [y] snes_conv_reason:   11
  newton =   1 [     569] linear =   126 [     72303] cuts =  0 [   0]
  --> max chng: dpmx=   2.3283E-10 dtmpmx=   7.0203E-11

== TH FLOW =====================================================================
 Step    561 Time=  2.74500E+01 Dt=  5.00000E-02 [y] snes_conv_reason:   11
  newton =   1 [     570] linear =    87 [     72390] cuts =  0 [   0]
  --> max chng: dpmx=   2.3283E-10 dtmpmx=   7.3829E-11

== TH FLOW =====================================================================
 Step    562 Time=  2.75000E+01 Dt=  5.00000E-02 [y] snes_conv_reason:   11
  newton =   1 [     571] linear =   119 [     72509] cuts =  0 [   0]
  --> max chng: dpmx=   2.3283E-10 dtmpmx=   6.9617E-11

 Wall Clock Time:  8.3191E+01 [sec]   1.3865E+00 [min]   2.3109E-02 [hr]
