
===================
  PFLOTRAN v3.0.1
===================

 Extent of Gridded Domain
  X: 2.5000000000000000 - 97.500000000000000
  Y: 2.5000000000000000 - 1277.5000000000000
  Z: 2.5000000000000000 - 2.5000000000000000


=+=+=+=+=+=+=+=+=+=+=+=+=+=+=+=+=+=+=+=+=+=+=+=+=+=+=+=+=+=+=+=+=+=+=+=+=+=+=+=+

  Initial Condition

--------------------------------------------------------------------------------
          Flow Condition:   initial
                  Region:   all
--------------------------------------------------------------------------------

  Flow Condition: initial
    Synchronize time with update: no
    Time units: yr
    Length units: m
      Datum:
        Dataset: Unnamed Ascii Dataset
          Type: dataset_ascii_type
          Transient: no
          Array Rank:  3

    Sub Condition: pressure
      Type: hydrostatic
      Gradient:
        Dataset: Unnamed Ascii Dataset
          Type: dataset_ascii_type
          Transient: no
          Array Rank:  3
      Data:
        Dataset: Unnamed Ascii Dataset
          Type: dataset_ascii_type
          Transient: no
          Array Rank:  1

    Sub Condition: temperature
      Type: dirichlet
      Gradient:
      Data:
        Dataset: Unnamed Ascii Dataset
          Type: dataset_ascii_type
          Transient: no
          Array Rank:  1

--------------------------------------------------------------------------------

=+=+=+=+=+=+=+=+=+=+=+=+=+=+=+=+=+=+=+=+=+=+=+=+=+=+=+=+=+=+=+=+=+=+=+=+=+=+=+=+

  Boundary Condition

--------------------------------------------------------------------------------
          Flow Condition:   initial
                  Region:   north
--------------------------------------------------------------------------------

  Flow Condition: initial
    Synchronize time with update: no
    Time units: yr
    Length units: m
      Datum:
        Dataset: Unnamed Ascii Dataset
          Type: dataset_ascii_type
          Transient: no
          Array Rank:  3

    Sub Condition: pressure
      Type: hydrostatic
      Gradient:
        Dataset: Unnamed Ascii Dataset
          Type: dataset_ascii_type
          Transient: no
          Array Rank:  3
      Data:
        Dataset: Unnamed Ascii Dataset
          Type: dataset_ascii_type
          Transient: no
          Array Rank:  1

    Sub Condition: temperature
      Type: dirichlet
      Gradient:
      Data:
        Dataset: Unnamed Ascii Dataset
          Type: dataset_ascii_type
          Transient: no
          Array Rank:  1

--------------------------------------------------------------------------------

=+=+=+=+=+=+=+=+=+=+=+=+=+=+=+=+=+=+=+=+=+=+=+=+=+=+=+=+=+=+=+=+=+=+=+=+=+=+=+=+

  Boundary Condition

--------------------------------------------------------------------------------
          Flow Condition:   initial
                  Region:   south
--------------------------------------------------------------------------------

  Flow Condition: initial
    Synchronize time with update: no
    Time units: yr
    Length units: m
      Datum:
        Dataset: Unnamed Ascii Dataset
          Type: dataset_ascii_type
          Transient: no
          Array Rank:  3

    Sub Condition: pressure
      Type: hydrostatic
      Gradient:
        Dataset: Unnamed Ascii Dataset
          Type: dataset_ascii_type
          Transient: no
          Array Rank:  3
      Data:
        Dataset: Unnamed Ascii Dataset
          Type: dataset_ascii_type
          Transient: no
          Array Rank:  1

    Sub Condition: temperature
      Type: dirichlet
      Gradient:
      Data:
        Dataset: Unnamed Ascii Dataset
          Type: dataset_ascii_type
          Transient: no
          Array Rank:  1

--------------------------------------------------------------------------------

=+=+=+=+=+=+=+=+=+=+=+=+=+=+=+=+=+=+=+=+=+=+=+=+=+=+=+=+=+=+=+=+=+=+=+=+=+=+=+=+

  Source Sink

--------------------------------------------------------------------------------
          Flow Condition:   injection
                  Region:   heatpump_inject0
--------------------------------------------------------------------------------

  Flow Condition: injection
    Synchronize time with update: no
    Time units: yr
    Length units: m
      Datum:

    Sub Condition: rate
      Type: scaled volumetric rate
      Gradient:
      Data:
        Dataset: Unnamed Ascii Dataset
          Type: dataset_ascii_type
          Is transient?: yes
          Number of times:      3
          Is cyclic?: no
          Buffer:
            Rank:  2
            Dims:    1   3
            Buffer Slice Size:   0
          Array Rank:  1

    Sub Condition: temperature
      Type: dirichlet
      Gradient:
      Data:
        Dataset: Unnamed Ascii Dataset
          Type: dataset_ascii_type
          Transient: no
          Array Rank:  1

--------------------------------------------------------------------------------

 Requested processors =    16

FLOW Time Stepper
                 acceleration: on
       acceleration threshold: 5
       number of ramp entries: 5
                ramp entry #1: 2.0000
                ramp entry #2: 2.0000
                ramp entry #3: 2.0000
                ramp entry #4: 2.0000
                ramp entry #5: 2.0000
                ramp entry #6: 1.8000
                ramp entry #7: 1.6000
                ramp entry #8: 1.4000
                ramp entry #9: 1.2000
               ramp entry #10: 1.0000
               ramp entry #11: 1.0000
               ramp entry #12: 1.0000
               ramp entry #13: 1.0000
      maximum number of steps: 999999
constant time steps threshold: 5
       maximum number of cuts: 16
             reduction factor: 5.000000E-01
        maximum growth factor: 2.000000E+00

FLOW Newton Solver
                         atol: 1.000000E-50
                         rtol: 1.000000E-03
                         stol: 1.000000E-08
                         dtol: 1.000000E+04
                      maxnorm: 1.000000E+20
                    inftolres: -9.990000E+02
                    inftolupd: 1.000000E+00
                 inftolrelupd: -9.990000E+02
                 inftolsclres: -9.990000E+02
                     max iter: 50
                     min iter: 1
                         maxf: 10000
                  matrix type: baij
         precond. matrix type: baij
               inexact newton: off
            print convergence: on
   print detailed convergence: off
          check infinity norm: on

FLOW Linear Solver
                       solver: bcgs
               preconditioner: bjacobi
                         atol: 1.000000E-50
                         rtol: 1.000000E-05
                         dtol: 1.000000E+04
            maximum iteration: 10000

== TH FLOW =====================================================================
 Step      1 Time=  1.00000E-05 Dt=  1.00000E-05 [y] snes_conv_reason:   11
  newton =   1 [       1] linear =    63 [        63] cuts =  0 [   0]
  --> max chng: dpmx=   2.6254E-02 dtmpmx=   9.7382E-10

== TH FLOW =====================================================================
 Step      2 Time=  3.00000E-05 Dt=  2.00000E-05 [y] snes_conv_reason:   11
  newton =   1 [       2] linear =    63 [       126] cuts =  0 [   0]
  --> max chng: dpmx=   3.4256E-02 dtmpmx=   1.9248E-09

== TH FLOW =====================================================================
 Step      3 Time=  7.00000E-05 Dt=  4.00000E-05 [y] snes_conv_reason:   11
  newton =   1 [       3] linear =    58 [       184] cuts =  0 [   0]
  --> max chng: dpmx=   3.0535E-02 dtmpmx=   3.8021E-09

== TH FLOW =====================================================================
 Step      4 Time=  1.50000E-04 Dt=  8.00000E-05 [y] snes_conv_reason:   11
  newton =   1 [       4] linear =    49 [       233] cuts =  0 [   0]
  --> max chng: dpmx=   1.7127E-02 dtmpmx=   7.5492E-09

== TH FLOW =====================================================================
 Step      5 Time=  3.10000E-04 Dt=  1.60000E-04 [y] snes_conv_reason:   11
  newton =   1 [       5] linear =    58 [       291] cuts =  0 [   0]
  --> max chng: dpmx=   5.5637E-03 dtmpmx=   1.5062E-08

== TH FLOW =====================================================================
 Step      6 Time=  6.30000E-04 Dt=  3.20000E-04 [y] snes_conv_reason:   11
  newton =   1 [       6] linear =    86 [       377] cuts =  0 [   0]
  --> max chng: dpmx=   9.8293E-04 dtmpmx=   3.0112E-08

== TH FLOW =====================================================================
 Step      7 Time=  1.27000E-03 Dt=  6.40000E-04 [y] snes_conv_reason:   11
  newton =   1 [       7] linear =   103 [       480] cuts =  0 [   0]
  --> max chng: dpmx=   9.0725E-05 dtmpmx=   6.0224E-08

== TH FLOW =====================================================================
 Step      8 Time=  2.55000E-03 Dt=  1.28000E-03 [y] snes_conv_reason:   11
  newton =   1 [       8] linear =   101 [       581] cuts =  0 [   0]
  --> max chng: dpmx=   4.0611E-06 dtmpmx=   1.2045E-07

== TH FLOW =====================================================================
 Step      9 Time=  5.11000E-03 Dt=  2.56000E-03 [y] snes_conv_reason:   11
  newton =   1 [       9] linear =   122 [       703] cuts =  0 [   0]
  --> max chng: dpmx=   9.4238E-07 dtmpmx=   2.4089E-07

== TH FLOW =====================================================================
 Step     10 Time=  1.02300E-02 Dt=  5.12000E-03 [y] snes_conv_reason:   11
  newton =   1 [      10] linear =   121 [       824] cuts =  0 [   0]
  --> max chng: dpmx=   1.9199E-06 dtmpmx=   4.8179E-07

== TH FLOW =====================================================================
 Step     11 Time=  2.04700E-02 Dt=  1.02400E-02 [y] snes_conv_reason:   11
  newton =   1 [      11] linear =   121 [       945] cuts =  0 [   0]
  --> max chng: dpmx=   3.9535E-06 dtmpmx=   9.6358E-07

== TH FLOW =====================================================================
 Step     12 Time=  4.09500E-02 Dt=  2.04800E-02 [y] snes_conv_reason:   11
  newton =   1 [      12] linear =   115 [      1060] cuts =  0 [   0]
  --> max chng: dpmx=   8.3464E-06 dtmpmx=   1.9272E-06

== TH FLOW =====================================================================
 Step     13 Time=  8.19100E-02 Dt=  4.09600E-02 [y] snes_conv_reason:   11
  newton =   1 [      13] linear =   117 [      1177] cuts =  0 [   0]
  --> max chng: dpmx=   1.8502E-05 dtmpmx=   3.8543E-06

== TH FLOW =====================================================================
 Step     14 Time=  1.00000E-01 Dt=  1.80900E-02 [y] snes_conv_reason:   11
  newton =   1 [      14] linear =   120 [      1297] cuts =  0 [   0]
  --> max chng: dpmx=   8.5246E-06 dtmpmx=   1.7023E-06

== TH FLOW =====================================================================
 Step     15 Time=  1.50000E-01 Dt=  5.00000E-02 [y] snes_conv_reason:   11
  newton =   1 [      15] linear =   123 [      1420] cuts =  0 [   0]
  --> max chng: dpmx=   2.6207E-05 dtmpmx=   4.7050E-06

== TH FLOW =====================================================================
 Step     16 Time=  2.00000E-01 Dt=  5.00000E-02 [y] snes_conv_reason:   11
  newton =   1 [      16] linear =   120 [      1540] cuts =  0 [   0]
  --> max chng: dpmx=   2.8848E-05 dtmpmx=   4.7050E-06

== TH FLOW =====================================================================
 Step     17 Time=  2.50000E-01 Dt=  5.00000E-02 [y] snes_conv_reason:    3
  newton =   3 [      19] linear =   344 [      1884] cuts =  0 [   0]
  --> max chng: dpmx=   3.5522E+03 dtmpmx=   3.5151E+00

== TH FLOW =====================================================================
 Step     18 Time=  3.00000E-01 Dt=  5.00000E-02 [y] snes_conv_reason:   11
  newton =   2 [      21] linear =   235 [      2119] cuts =  0 [   0]
  --> max chng: dpmx=   2.1979E+01 dtmpmx=   1.2597E+00

== TH FLOW =====================================================================
 Step     19 Time=  3.50000E-01 Dt=  5.00000E-02 [y] snes_conv_reason:   11
  newton =   2 [      23] linear =   218 [      2337] cuts =  0 [   0]
  --> max chng: dpmx=   1.1123E+01 dtmpmx=   8.5893E-01

== TH FLOW =====================================================================
 Step     20 Time=  4.00000E-01 Dt=  5.00000E-02 [y] snes_conv_reason:   11
  newton =   2 [      25] linear =   221 [      2558] cuts =  0 [   0]
  --> max chng: dpmx=   6.7652E+00 dtmpmx=   6.6067E-01

== TH FLOW =====================================================================
 Step     21 Time=  4.50000E-01 Dt=  5.00000E-02 [y] snes_conv_reason:   11
  newton =   2 [      27] linear =   225 [      2783] cuts =  0 [   0]
  --> max chng: dpmx=   4.8144E+00 dtmpmx=   5.6330E-01

== TH FLOW =====================================================================
 Step     22 Time=  5.00000E-01 Dt=  5.00000E-02 [y] snes_conv_reason:    3
  newton =   1 [      28] linear =   116 [      2899] cuts =  0 [   0]
  --> max chng: dpmx=   3.7706E+00 dtmpmx=   4.5798E-01

== TH FLOW =====================================================================
 Step     23 Time=  5.50000E-01 Dt=  5.00000E-02 [y] snes_conv_reason:    3
  newton =   1 [      29] linear =   122 [      3021] cuts =  0 [   0]
  --> max chng: dpmx=   3.0625E+00 dtmpmx=   4.3128E-01

== TH FLOW =====================================================================
 Step     24 Time=  6.00000E-01 Dt=  5.00000E-02 [y] snes_conv_reason:    3
  newton =   1 [      30] linear =   121 [      3142] cuts =  0 [   0]
  --> max chng: dpmx=   2.5798E+00 dtmpmx=   3.9130E-01

== TH FLOW =====================================================================
 Step     25 Time=  6.50000E-01 Dt=  5.00000E-02 [y] snes_conv_reason:    3
  newton =   1 [      31] linear =   122 [      3264] cuts =  0 [   0]
  --> max chng: dpmx=   2.4373E+00 dtmpmx=   3.4552E-01

== TH FLOW =====================================================================
 Step     26 Time=  7.00000E-01 Dt=  5.00000E-02 [y] snes_conv_reason:    3
  newton =   1 [      32] linear =   125 [      3389] cuts =  0 [   0]
  --> max chng: dpmx=   2.3860E+00 dtmpmx=   3.2474E-01

== TH FLOW =====================================================================
 Step     27 Time=  7.50000E-01 Dt=  5.00000E-02 [y] snes_conv_reason:    3
  newton =   1 [      33] linear =   126 [      3515] cuts =  0 [   0]
  --> max chng: dpmx=   2.3560E+00 dtmpmx=   3.0864E-01

== TH FLOW =====================================================================
 Step     28 Time=  8.00000E-01 Dt=  5.00000E-02 [y] snes_conv_reason:    3
  newton =   1 [      34] linear =   122 [      3637] cuts =  0 [   0]
  --> max chng: dpmx=   2.3177E+00 dtmpmx=   2.8769E-01

== TH FLOW =====================================================================
 Step     29 Time=  8.50000E-01 Dt=  5.00000E-02 [y] snes_conv_reason:    3
  newton =   1 [      35] linear =   123 [      3760] cuts =  0 [   0]
  --> max chng: dpmx=   2.2787E+00 dtmpmx=   2.6405E-01

== TH FLOW =====================================================================
 Step     30 Time=  9.00000E-01 Dt=  5.00000E-02 [y] snes_conv_reason:    3
  newton =   1 [      36] linear =   121 [      3881] cuts =  0 [   0]
  --> max chng: dpmx=   2.2631E+00 dtmpmx=   2.5369E-01

== TH FLOW =====================================================================
 Step     31 Time=  9.50000E-01 Dt=  5.00000E-02 [y] snes_conv_reason:    3
  newton =   1 [      37] linear =   127 [      4008] cuts =  0 [   0]
  --> max chng: dpmx=   2.2407E+00 dtmpmx=   2.4546E-01

== TH FLOW =====================================================================
 Step     32 Time=  1.00000E+00 Dt=  5.00000E-02 [y] snes_conv_reason:    3
  newton =   1 [      38] linear =   123 [      4131] cuts =  0 [   0]
  --> max chng: dpmx=   2.2118E+00 dtmpmx=   2.3441E-01

== TH FLOW =====================================================================
 Step     33 Time=  1.05000E+00 Dt=  5.00000E-02 [y] snes_conv_reason:    3
  newton =   1 [      39] linear =   124 [      4255] cuts =  0 [   0]
  --> max chng: dpmx=   2.1965E+00 dtmpmx=   2.2135E-01

== TH FLOW =====================================================================
 Step     34 Time=  1.10000E+00 Dt=  5.00000E-02 [y] snes_conv_reason:    3
  newton =   1 [      40] linear =   122 [      4377] cuts =  0 [   0]
  --> max chng: dpmx=   2.1853E+00 dtmpmx=   2.1184E-01

== TH FLOW =====================================================================
 Step     35 Time=  1.15000E+00 Dt=  5.00000E-02 [y] snes_conv_reason:    3
  newton =   1 [      41] linear =   125 [      4502] cuts =  0 [   0]
  --> max chng: dpmx=   2.1683E+00 dtmpmx=   2.0651E-01

== TH FLOW =====================================================================
 Step     36 Time=  1.20000E+00 Dt=  5.00000E-02 [y] snes_conv_reason:    3
  newton =   1 [      42] linear =   115 [      4617] cuts =  0 [   0]
  --> max chng: dpmx=   2.1458E+00 dtmpmx=   2.0033E-01

== TH FLOW =====================================================================
 Step     37 Time=  1.25000E+00 Dt=  5.00000E-02 [y] snes_conv_reason:    3
  newton =   1 [      43] linear =   125 [      4742] cuts =  0 [   0]
  --> max chng: dpmx=   2.1409E+00 dtmpmx=   1.9321E-01

== TH FLOW =====================================================================
 Step     38 Time=  1.30000E+00 Dt=  5.00000E-02 [y] snes_conv_reason:    3
  newton =   1 [      44] linear =   124 [      4866] cuts =  0 [   0]
  --> max chng: dpmx=   2.1307E+00 dtmpmx=   1.8488E-01

== TH FLOW =====================================================================
 Step     39 Time=  1.35000E+00 Dt=  5.00000E-02 [y] snes_conv_reason:    3
  newton =   1 [      45] linear =   126 [      4992] cuts =  0 [   0]
  --> max chng: dpmx=   2.1174E+00 dtmpmx=   1.8019E-01

== TH FLOW =====================================================================
 Step     40 Time=  1.40000E+00 Dt=  5.00000E-02 [y] snes_conv_reason:    3
  newton =   1 [      46] linear =   125 [      5117] cuts =  0 [   0]
  --> max chng: dpmx=   2.1031E+00 dtmpmx=   1.7628E-01

== TH FLOW =====================================================================
 Step     41 Time=  1.45000E+00 Dt=  5.00000E-02 [y] snes_conv_reason:    3
  newton =   1 [      47] linear =   122 [      5239] cuts =  0 [   0]
  --> max chng: dpmx=   2.0985E+00 dtmpmx=   1.7167E-01

== TH FLOW =====================================================================
 Step     42 Time=  1.50000E+00 Dt=  5.00000E-02 [y] snes_conv_reason:    3
  newton =   1 [      48] linear =   123 [      5362] cuts =  0 [   0]
  --> max chng: dpmx=   2.0915E+00 dtmpmx=   1.6709E-01

== TH FLOW =====================================================================
 Step     43 Time=  1.55000E+00 Dt=  5.00000E-02 [y] snes_conv_reason:    3
  newton =   1 [      49] linear =   120 [      5482] cuts =  0 [   0]
  --> max chng: dpmx=   2.0813E+00 dtmpmx=   1.6163E-01

== TH FLOW =====================================================================
 Step     44 Time=  1.60000E+00 Dt=  5.00000E-02 [y] snes_conv_reason:    3
  newton =   1 [      50] linear =   121 [      5603] cuts =  0 [   0]
  --> max chng: dpmx=   2.0687E+00 dtmpmx=   1.5779E-01

== TH FLOW =====================================================================
 Step     45 Time=  1.65000E+00 Dt=  5.00000E-02 [y] snes_conv_reason:    3
  newton =   1 [      51] linear =   125 [      5728] cuts =  0 [   0]
  --> max chng: dpmx=   2.0671E+00 dtmpmx=   1.5512E-01

== TH FLOW =====================================================================
 Step     46 Time=  1.70000E+00 Dt=  5.00000E-02 [y] snes_conv_reason:    3
  newton =   1 [      52] linear =   123 [      5851] cuts =  0 [   0]
  --> max chng: dpmx=   2.0609E+00 dtmpmx=   1.5164E-01

== TH FLOW =====================================================================
 Step     47 Time=  1.75000E+00 Dt=  5.00000E-02 [y] snes_conv_reason:    3
  newton =   1 [      53] linear =   124 [      5975] cuts =  0 [   0]
  --> max chng: dpmx=   2.0538E+00 dtmpmx=   1.4872E-01

== TH FLOW =====================================================================
 Step     48 Time=  1.80000E+00 Dt=  5.00000E-02 [y] snes_conv_reason:    3
  newton =   1 [      54] linear =   126 [      6101] cuts =  0 [   0]
  --> max chng: dpmx=   2.0424E+00 dtmpmx=   1.4512E-01

== TH FLOW =====================================================================
 Step     49 Time=  1.85000E+00 Dt=  5.00000E-02 [y] snes_conv_reason:    3
  newton =   1 [      55] linear =   126 [      6227] cuts =  0 [   0]
  --> max chng: dpmx=   2.0412E+00 dtmpmx=   1.4110E-01

== TH FLOW =====================================================================
 Step     50 Time=  1.90000E+00 Dt=  5.00000E-02 [y] snes_conv_reason:    3
  newton =   1 [      56] linear =   123 [      6350] cuts =  0 [   0]
  --> max chng: dpmx=   2.0376E+00 dtmpmx=   1.3937E-01

== TH FLOW =====================================================================
 Step     51 Time=  1.95000E+00 Dt=  5.00000E-02 [y] snes_conv_reason:    3
  newton =   1 [      57] linear =   123 [      6473] cuts =  0 [   0]
  --> max chng: dpmx=   2.0312E+00 dtmpmx=   1.3702E-01

== TH FLOW =====================================================================
 Step     52 Time=  2.00000E+00 Dt=  5.00000E-02 [y] snes_conv_reason:    3
  newton =   1 [      58] linear =   118 [      6591] cuts =  0 [   0]
  --> max chng: dpmx=   2.0231E+00 dtmpmx=   1.3480E-01

== TH FLOW =====================================================================
 Step     53 Time=  2.05000E+00 Dt=  5.00000E-02 [y] snes_conv_reason:    3
  newton =   1 [      59] linear =   122 [      6713] cuts =  0 [   0]
  --> max chng: dpmx=   2.0203E+00 dtmpmx=   1.3246E-01

== TH FLOW =====================================================================
 Step     54 Time=  2.10000E+00 Dt=  5.00000E-02 [y] snes_conv_reason:    3
  newton =   1 [      60] linear =   123 [      6836] cuts =  0 [   0]
  --> max chng: dpmx=   2.0176E+00 dtmpmx=   1.2964E-01

== TH FLOW =====================================================================
 Step     55 Time=  2.15000E+00 Dt=  5.00000E-02 [y] snes_conv_reason:    3
  newton =   1 [      61] linear =   124 [      6960] cuts =  0 [   0]
  --> max chng: dpmx=   2.0135E+00 dtmpmx=   1.2704E-01

== TH FLOW =====================================================================
 Step     56 Time=  2.20000E+00 Dt=  5.00000E-02 [y] snes_conv_reason:    3
  newton =   1 [      62] linear =   123 [      7083] cuts =  0 [   0]
  --> max chng: dpmx=   2.0073E+00 dtmpmx=   1.2552E-01

== TH FLOW =====================================================================
 Step     57 Time=  2.25000E+00 Dt=  5.00000E-02 [y] snes_conv_reason:    3
  newton =   1 [      63] linear =   124 [      7207] cuts =  0 [   0]
  --> max chng: dpmx=   2.0026E+00 dtmpmx=   1.2367E-01

== TH FLOW =====================================================================
 Step     58 Time=  2.30000E+00 Dt=  5.00000E-02 [y] snes_conv_reason:    3
  newton =   1 [      64] linear =   126 [      7333] cuts =  0 [   0]
  --> max chng: dpmx=   2.0010E+00 dtmpmx=   1.2221E-01

== TH FLOW =====================================================================
 Step     59 Time=  2.35000E+00 Dt=  5.00000E-02 [y] snes_conv_reason:    3
  newton =   1 [      65] linear =   125 [      7458] cuts =  0 [   0]
  --> max chng: dpmx=   1.9984E+00 dtmpmx=   1.2035E-01

== TH FLOW =====================================================================
 Step     60 Time=  2.40000E+00 Dt=  5.00000E-02 [y] snes_conv_reason:    3
  newton =   1 [      66] linear =   123 [      7581] cuts =  0 [   0]
  --> max chng: dpmx=   1.9930E+00 dtmpmx=   1.1811E-01

== TH FLOW =====================================================================
 Step     61 Time=  2.45000E+00 Dt=  5.00000E-02 [y] snes_conv_reason:    3
  newton =   1 [      67] linear =   105 [      7686] cuts =  0 [   0]
  --> max chng: dpmx=   1.9884E+00 dtmpmx=   1.1609E-01

== TH FLOW =====================================================================
 Step     62 Time=  2.50000E+00 Dt=  5.00000E-02 [y] snes_conv_reason:    3
  newton =   1 [      68] linear =   109 [      7795] cuts =  0 [   0]
  --> max chng: dpmx=   1.9866E+00 dtmpmx=   1.1480E-01

== TH FLOW =====================================================================
 Step     63 Time=  2.55000E+00 Dt=  5.00000E-02 [y] snes_conv_reason:    3
  newton =   1 [      69] linear =   122 [      7917] cuts =  0 [   0]
  --> max chng: dpmx=   1.9849E+00 dtmpmx=   1.1361E-01

== TH FLOW =====================================================================
 Step     64 Time=  2.60000E+00 Dt=  5.00000E-02 [y] snes_conv_reason:    3
  newton =   1 [      70] linear =   122 [      8039] cuts =  0 [   0]
  --> max chng: dpmx=   1.9818E+00 dtmpmx=   1.1244E-01

== TH FLOW =====================================================================
 Step     65 Time=  2.65000E+00 Dt=  5.00000E-02 [y] snes_conv_reason:    3
  newton =   1 [      71] linear =   121 [      8160] cuts =  0 [   0]
  --> max chng: dpmx=   1.9770E+00 dtmpmx=   1.1095E-01

== TH FLOW =====================================================================
 Step     66 Time=  2.70000E+00 Dt=  5.00000E-02 [y] snes_conv_reason:    3
  newton =   1 [      72] linear =   123 [      8283] cuts =  0 [   0]
  --> max chng: dpmx=   1.9743E+00 dtmpmx=   1.0916E-01

== TH FLOW =====================================================================
 Step     67 Time=  2.75000E+00 Dt=  5.00000E-02 [y] snes_conv_reason:    3
  newton =   1 [      73] linear =   122 [      8405] cuts =  0 [   0]
  --> max chng: dpmx=   1.9733E+00 dtmpmx=   1.0734E-01

== TH FLOW =====================================================================
 Step     68 Time=  2.80000E+00 Dt=  5.00000E-02 [y] snes_conv_reason:    3
  newton =   1 [      74] linear =   124 [      8529] cuts =  0 [   0]
  --> max chng: dpmx=   1.9708E+00 dtmpmx=   1.0627E-01

== TH FLOW =====================================================================
 Step     69 Time=  2.85000E+00 Dt=  5.00000E-02 [y] snes_conv_reason:    3
  newton =   1 [      75] linear =   123 [      8652] cuts =  0 [   0]
  --> max chng: dpmx=   1.9673E+00 dtmpmx=   1.0555E-01

== TH FLOW =====================================================================
 Step     70 Time=  2.90000E+00 Dt=  5.00000E-02 [y] snes_conv_reason:    3
  newton =   1 [      76] linear =   123 [      8775] cuts =  0 [   0]
  --> max chng: dpmx=   1.9629E+00 dtmpmx=   1.0461E-01

== TH FLOW =====================================================================
 Step     71 Time=  2.95000E+00 Dt=  5.00000E-02 [y] snes_conv_reason:    3
  newton =   1 [      77] linear =   123 [      8898] cuts =  0 [   0]
  --> max chng: dpmx=   1.9622E+00 dtmpmx=   1.0340E-01

== TH FLOW =====================================================================
 Step     72 Time=  3.00000E+00 Dt=  5.00000E-02 [y] snes_conv_reason:    3
  newton =   1 [      78] linear =   122 [      9020] cuts =  0 [   0]
  --> max chng: dpmx=   1.9616E+00 dtmpmx=   1.0196E-01

== TH FLOW =====================================================================
 Step     73 Time=  3.05000E+00 Dt=  5.00000E-02 [y] snes_conv_reason:    3
  newton =   1 [      79] linear =   123 [      9143] cuts =  0 [   0]
  --> max chng: dpmx=   1.9583E+00 dtmpmx=   1.0028E-01

== TH FLOW =====================================================================
 Step     74 Time=  3.10000E+00 Dt=  5.00000E-02 [y] snes_conv_reason:    3
  newton =   1 [      80] linear =   122 [      9265] cuts =  0 [   0]
  --> max chng: dpmx=   1.9553E+00 dtmpmx=   9.9430E-02

== TH FLOW =====================================================================
 Step     75 Time=  3.15000E+00 Dt=  5.00000E-02 [y] snes_conv_reason:    3
  newton =   1 [      81] linear =   125 [      9390] cuts =  0 [   0]
  --> max chng: dpmx=   1.9522E+00 dtmpmx=   9.8914E-02

== TH FLOW =====================================================================
 Step     76 Time=  3.20000E+00 Dt=  5.00000E-02 [y] snes_conv_reason:    3
  newton =   1 [      82] linear =   123 [      9513] cuts =  0 [   0]
  --> max chng: dpmx=   1.9519E+00 dtmpmx=   9.8161E-02

== TH FLOW =====================================================================
 Step     77 Time=  3.25000E+00 Dt=  5.00000E-02 [y] snes_conv_reason:    3
  newton =   1 [      83] linear =   123 [      9636] cuts =  0 [   0]
  --> max chng: dpmx=   1.9502E+00 dtmpmx=   9.7186E-02

== TH FLOW =====================================================================
 Step     78 Time=  3.30000E+00 Dt=  5.00000E-02 [y] snes_conv_reason:    3
  newton =   1 [      84] linear =   125 [      9761] cuts =  0 [   0]
  --> max chng: dpmx=   1.9473E+00 dtmpmx=   9.6003E-02

== TH FLOW =====================================================================
 Step     79 Time=  3.35000E+00 Dt=  5.00000E-02 [y] snes_conv_reason:    3
  newton =   1 [      85] linear =   122 [      9883] cuts =  0 [   0]
  --> max chng: dpmx=   1.9443E+00 dtmpmx=   9.4630E-02

== TH FLOW =====================================================================
 Step     80 Time=  3.40000E+00 Dt=  5.00000E-02 [y] snes_conv_reason:    3
  newton =   1 [      86] linear =   124 [     10007] cuts =  0 [   0]
  --> max chng: dpmx=   1.9430E+00 dtmpmx=   9.3744E-02

== TH FLOW =====================================================================
 Step     81 Time=  3.45000E+00 Dt=  5.00000E-02 [y] snes_conv_reason:    3
  newton =   1 [      87] linear =   124 [     10131] cuts =  0 [   0]
  --> max chng: dpmx=   1.9415E+00 dtmpmx=   9.3344E-02

== TH FLOW =====================================================================
 Step     82 Time=  3.50000E+00 Dt=  5.00000E-02 [y] snes_conv_reason:    3
  newton =   1 [      88] linear =   124 [     10255] cuts =  0 [   0]
  --> max chng: dpmx=   1.9405E+00 dtmpmx=   9.2742E-02

== TH FLOW =====================================================================
 Step     83 Time=  3.55000E+00 Dt=  5.00000E-02 [y] snes_conv_reason:    3
  newton =   1 [      89] linear =   119 [     10374] cuts =  0 [   0]
  --> max chng: dpmx=   1.9376E+00 dtmpmx=   9.1949E-02

== TH FLOW =====================================================================
 Step     84 Time=  3.60000E+00 Dt=  5.00000E-02 [y] snes_conv_reason:    3
  newton =   1 [      90] linear =   125 [     10499] cuts =  0 [   0]
  --> max chng: dpmx=   1.9346E+00 dtmpmx=   9.0978E-02

== TH FLOW =====================================================================
 Step     85 Time=  3.65000E+00 Dt=  5.00000E-02 [y] snes_conv_reason:    3
  newton =   1 [      91] linear =   122 [     10621] cuts =  0 [   0]
  --> max chng: dpmx=   1.9338E+00 dtmpmx=   8.9839E-02

== TH FLOW =====================================================================
 Step     86 Time=  3.70000E+00 Dt=  5.00000E-02 [y] snes_conv_reason:    3
  newton =   1 [      92] linear =   125 [     10746] cuts =  0 [   0]
  --> max chng: dpmx=   1.9331E+00 dtmpmx=   8.9002E-02

== TH FLOW =====================================================================
 Step     87 Time=  3.75000E+00 Dt=  5.00000E-02 [y] snes_conv_reason:    3
  newton =   1 [      93] linear =   126 [     10872] cuts =  0 [   0]
  --> max chng: dpmx=   1.9309E+00 dtmpmx=   8.8585E-02

== TH FLOW =====================================================================
 Step     88 Time=  3.80000E+00 Dt=  5.00000E-02 [y] snes_conv_reason:    3
  newton =   1 [      94] linear =   126 [     10998] cuts =  0 [   0]
  --> max chng: dpmx=   1.9282E+00 dtmpmx=   8.8106E-02

== TH FLOW =====================================================================
 Step     89 Time=  3.85000E+00 Dt=  5.00000E-02 [y] snes_conv_reason:    3
  newton =   1 [      95] linear =   125 [     11123] cuts =  0 [   0]
  --> max chng: dpmx=   1.9264E+00 dtmpmx=   8.7461E-02

== TH FLOW =====================================================================
 Step     90 Time=  3.90000E+00 Dt=  5.00000E-02 [y] snes_conv_reason:    3
  newton =   1 [      96] linear =   125 [     11248] cuts =  0 [   0]
  --> max chng: dpmx=   1.9256E+00 dtmpmx=   8.6658E-02

== TH FLOW =====================================================================
 Step     91 Time=  3.95000E+00 Dt=  5.00000E-02 [y] snes_conv_reason:    3
  newton =   1 [      97] linear =   127 [     11375] cuts =  0 [   0]
  --> max chng: dpmx=   1.9240E+00 dtmpmx=   8.5708E-02

== TH FLOW =====================================================================
 Step     92 Time=  4.00000E+00 Dt=  5.00000E-02 [y] snes_conv_reason:    3
  newton =   1 [      98] linear =   130 [     11505] cuts =  0 [   0]
  --> max chng: dpmx=   1.9220E+00 dtmpmx=   8.4920E-02

== TH FLOW =====================================================================
 Step     93 Time=  4.05000E+00 Dt=  5.00000E-02 [y] snes_conv_reason:    3
  newton =   1 [      99] linear =   125 [     11630] cuts =  0 [   0]
  --> max chng: dpmx=   1.9202E+00 dtmpmx=   8.4484E-02

== TH FLOW =====================================================================
 Step     94 Time=  4.10000E+00 Dt=  5.00000E-02 [y] snes_conv_reason:    3
  newton =   1 [     100] linear =   127 [     11757] cuts =  0 [   0]
  --> max chng: dpmx=   1.9180E+00 dtmpmx=   8.4082E-02

== TH FLOW =====================================================================
 Step     95 Time=  4.15000E+00 Dt=  5.00000E-02 [y] snes_conv_reason:    3
  newton =   1 [     101] linear =   126 [     11883] cuts =  0 [   0]
  --> max chng: dpmx=   1.9177E+00 dtmpmx=   8.3556E-02

== TH FLOW =====================================================================
 Step     96 Time=  4.20000E+00 Dt=  5.00000E-02 [y] snes_conv_reason:    3
  newton =   1 [     102] linear =   124 [     12007] cuts =  0 [   0]
  --> max chng: dpmx=   1.9161E+00 dtmpmx=   8.2892E-02

== TH FLOW =====================================================================
 Step     97 Time=  4.25000E+00 Dt=  5.00000E-02 [y] snes_conv_reason:    3
  newton =   1 [     103] linear =   125 [     12132] cuts =  0 [   0]
  --> max chng: dpmx=   1.9142E+00 dtmpmx=   8.2095E-02

== TH FLOW =====================================================================
 Step     98 Time=  4.30000E+00 Dt=  5.00000E-02 [y] snes_conv_reason:    3
  newton =   1 [     104] linear =   125 [     12257] cuts =  0 [   0]
  --> max chng: dpmx=   1.9112E+00 dtmpmx=   8.1329E-02

== TH FLOW =====================================================================
 Step     99 Time=  4.35000E+00 Dt=  5.00000E-02 [y] snes_conv_reason:    3
  newton =   1 [     105] linear =   124 [     12381] cuts =  0 [   0]
  --> max chng: dpmx=   1.9108E+00 dtmpmx=   8.0991E-02

== TH FLOW =====================================================================
 Step    100 Time=  4.40000E+00 Dt=  5.00000E-02 [y] snes_conv_reason:    3
  newton =   1 [     106] linear =   118 [     12499] cuts =  0 [   0]
  --> max chng: dpmx=   1.9091E+00 dtmpmx=   8.0545E-02

== TH FLOW =====================================================================
 Step    101 Time=  4.45000E+00 Dt=  5.00000E-02 [y] snes_conv_reason:    3
  newton =   1 [     107] linear =   125 [     12624] cuts =  0 [   0]
  --> max chng: dpmx=   1.9086E+00 dtmpmx=   8.0119E-02

== TH FLOW =====================================================================
 Step    102 Time=  4.50000E+00 Dt=  5.00000E-02 [y] snes_conv_reason:    3
  newton =   1 [     108] linear =   126 [     12750] cuts =  0 [   0]
  --> max chng: dpmx=   1.9063E+00 dtmpmx=   7.9567E-02

== TH FLOW =====================================================================
 Step    103 Time=  4.55000E+00 Dt=  5.00000E-02 [y] snes_conv_reason:    3
  newton =   1 [     109] linear =   114 [     12864] cuts =  0 [   0]
  --> max chng: dpmx=   1.9036E+00 dtmpmx=   7.8897E-02

== TH FLOW =====================================================================
 Step    104 Time=  4.60000E+00 Dt=  5.00000E-02 [y] snes_conv_reason:    3
  newton =   1 [     110] linear =   126 [     12990] cuts =  0 [   0]
  --> max chng: dpmx=   1.9029E+00 dtmpmx=   7.8137E-02

== TH FLOW =====================================================================
 Step    105 Time=  4.65000E+00 Dt=  5.00000E-02 [y] snes_conv_reason:    3
  newton =   1 [     111] linear =   124 [     13114] cuts =  0 [   0]
  --> max chng: dpmx=   1.9023E+00 dtmpmx=   7.7879E-02

== TH FLOW =====================================================================
 Step    106 Time=  4.70000E+00 Dt=  5.00000E-02 [y] snes_conv_reason:    3
  newton =   1 [     112] linear =   124 [     13238] cuts =  0 [   0]
  --> max chng: dpmx=   1.9001E+00 dtmpmx=   7.7503E-02

== TH FLOW =====================================================================
 Step    107 Time=  4.75000E+00 Dt=  5.00000E-02 [y] snes_conv_reason:    3
  newton =   1 [     113] linear =   123 [     13361] cuts =  0 [   0]
  --> max chng: dpmx=   1.8984E+00 dtmpmx=   7.7060E-02

== TH FLOW =====================================================================
 Step    108 Time=  4.80000E+00 Dt=  5.00000E-02 [y] snes_conv_reason:    3
  newton =   1 [     114] linear =   125 [     13486] cuts =  0 [   0]
  --> max chng: dpmx=   1.8964E+00 dtmpmx=   7.6602E-02

== TH FLOW =====================================================================
 Step    109 Time=  4.85000E+00 Dt=  5.00000E-02 [y] snes_conv_reason:    3
  newton =   1 [     115] linear =   116 [     13602] cuts =  0 [   0]
  --> max chng: dpmx=   1.8959E+00 dtmpmx=   7.6037E-02

== TH FLOW =====================================================================
 Step    110 Time=  4.90000E+00 Dt=  5.00000E-02 [y] snes_conv_reason:    3
  newton =   1 [     116] linear =   120 [     13722] cuts =  0 [   0]
  --> max chng: dpmx=   1.8944E+00 dtmpmx=   7.5370E-02

== TH FLOW =====================================================================
 Step    111 Time=  4.95000E+00 Dt=  5.00000E-02 [y] snes_conv_reason:    3
  newton =   1 [     117] linear =   122 [     13844] cuts =  0 [   0]
  --> max chng: dpmx=   1.8934E+00 dtmpmx=   7.5082E-02

== TH FLOW =====================================================================
 Step    112 Time=  5.00000E+00 Dt=  5.00000E-02 [y] snes_conv_reason:    3
  newton =   1 [     118] linear =   124 [     13968] cuts =  0 [   0]
  --> max chng: dpmx=   1.8908E+00 dtmpmx=   7.4783E-02

== TH FLOW =====================================================================
 Step    113 Time=  5.05000E+00 Dt=  5.00000E-02 [y] snes_conv_reason:    3
  newton =   1 [     119] linear =   123 [     14091] cuts =  0 [   0]
  --> max chng: dpmx=   1.8891E+00 dtmpmx=   7.4381E-02

== TH FLOW =====================================================================
 Step    114 Time=  5.10000E+00 Dt=  5.00000E-02 [y] snes_conv_reason:    3
  newton =   1 [     120] linear =   123 [     14214] cuts =  0 [   0]
  --> max chng: dpmx=   1.8883E+00 dtmpmx=   7.3936E-02

== TH FLOW =====================================================================
 Step    115 Time=  5.15000E+00 Dt=  5.00000E-02 [y] snes_conv_reason:    3
  newton =   1 [     121] linear =   120 [     14334] cuts =  0 [   0]
  --> max chng: dpmx=   1.8872E+00 dtmpmx=   7.3459E-02

== TH FLOW =====================================================================
 Step    116 Time=  5.20000E+00 Dt=  5.00000E-02 [y] snes_conv_reason:    3
  newton =   1 [     122] linear =   123 [     14457] cuts =  0 [   0]
  --> max chng: dpmx=   1.8854E+00 dtmpmx=   7.2888E-02

== TH FLOW =====================================================================
 Step    117 Time=  5.25000E+00 Dt=  5.00000E-02 [y] snes_conv_reason:    3
  newton =   1 [     123] linear =   120 [     14577] cuts =  0 [   0]
  --> max chng: dpmx=   1.8838E+00 dtmpmx=   7.2550E-02

== TH FLOW =====================================================================
 Step    118 Time=  5.30000E+00 Dt=  5.00000E-02 [y] snes_conv_reason:    3
  newton =   1 [     124] linear =   123 [     14700] cuts =  0 [   0]
  --> max chng: dpmx=   1.8817E+00 dtmpmx=   7.2315E-02

== TH FLOW =====================================================================
 Step    119 Time=  5.35000E+00 Dt=  5.00000E-02 [y] snes_conv_reason:    3
  newton =   1 [     125] linear =   123 [     14823] cuts =  0 [   0]
  --> max chng: dpmx=   1.8809E+00 dtmpmx=   7.1986E-02

== TH FLOW =====================================================================
 Step    120 Time=  5.40000E+00 Dt=  5.00000E-02 [y] snes_conv_reason:    3
  newton =   1 [     126] linear =   120 [     14943] cuts =  0 [   0]
  --> max chng: dpmx=   1.8798E+00 dtmpmx=   7.1566E-02

== TH FLOW =====================================================================
 Step    121 Time=  5.45000E+00 Dt=  5.00000E-02 [y] snes_conv_reason:    3
  newton =   1 [     127] linear =   124 [     15067] cuts =  0 [   0]
  --> max chng: dpmx=   1.8785E+00 dtmpmx=   7.1117E-02

== TH FLOW =====================================================================
 Step    122 Time=  5.50000E+00 Dt=  5.00000E-02 [y] snes_conv_reason:    3
  newton =   1 [     128] linear =   123 [     15190] cuts =  0 [   0]
  --> max chng: dpmx=   1.8757E+00 dtmpmx=   7.0628E-02

== TH FLOW =====================================================================
 Step    123 Time=  5.55000E+00 Dt=  5.00000E-02 [y] snes_conv_reason:    3
  newton =   1 [     129] linear =   121 [     15311] cuts =  0 [   0]
  --> max chng: dpmx=   1.8747E+00 dtmpmx=   7.0242E-02

== TH FLOW =====================================================================
 Step    124 Time=  5.60000E+00 Dt=  5.00000E-02 [y] snes_conv_reason:    3
  newton =   1 [     130] linear =   123 [     15434] cuts =  0 [   0]
  --> max chng: dpmx=   1.8740E+00 dtmpmx=   7.0062E-02

== TH FLOW =====================================================================
 Step    125 Time=  5.65000E+00 Dt=  5.00000E-02 [y] snes_conv_reason:    3
  newton =   1 [     131] linear =   122 [     15556] cuts =  0 [   0]
  --> max chng: dpmx=   1.8727E+00 dtmpmx=   6.9794E-02

== TH FLOW =====================================================================
 Step    126 Time=  5.70000E+00 Dt=  5.00000E-02 [y] snes_conv_reason:    3
  newton =   1 [     132] linear =   122 [     15678] cuts =  0 [   0]
  --> max chng: dpmx=   1.8709E+00 dtmpmx=   6.9442E-02

== TH FLOW =====================================================================
 Step    127 Time=  5.75000E+00 Dt=  5.00000E-02 [y] snes_conv_reason:    3
  newton =   1 [     133] linear =   121 [     15799] cuts =  0 [   0]
  --> max chng: dpmx=   1.8689E+00 dtmpmx=   6.9009E-02

== TH FLOW =====================================================================
 Step    128 Time=  5.80000E+00 Dt=  5.00000E-02 [y] snes_conv_reason:    3
  newton =   1 [     134] linear =   122 [     15921] cuts =  0 [   0]
  --> max chng: dpmx=   1.8674E+00 dtmpmx=   6.8557E-02

== TH FLOW =====================================================================
 Step    129 Time=  5.85000E+00 Dt=  5.00000E-02 [y] snes_conv_reason:    3
  newton =   1 [     135] linear =   121 [     16042] cuts =  0 [   0]
  --> max chng: dpmx=   1.8665E+00 dtmpmx=   6.8130E-02

== TH FLOW =====================================================================
 Step    130 Time=  5.90000E+00 Dt=  5.00000E-02 [y] snes_conv_reason:    3
  newton =   1 [     136] linear =   122 [     16164] cuts =  0 [   0]
  --> max chng: dpmx=   1.8652E+00 dtmpmx=   6.7994E-02

== TH FLOW =====================================================================
 Step    131 Time=  5.95000E+00 Dt=  5.00000E-02 [y] snes_conv_reason:    3
  newton =   1 [     137] linear =   121 [     16285] cuts =  0 [   0]
  --> max chng: dpmx=   1.8634E+00 dtmpmx=   6.7779E-02

== TH FLOW =====================================================================
 Step    132 Time=  6.00000E+00 Dt=  5.00000E-02 [y] snes_conv_reason:    3
  newton =   1 [     138] linear =   123 [     16408] cuts =  0 [   0]
  --> max chng: dpmx=   1.8617E+00 dtmpmx=   6.7485E-02

== TH FLOW =====================================================================
 Step    133 Time=  6.05000E+00 Dt=  5.00000E-02 [y] snes_conv_reason:    3
  newton =   1 [     139] linear =   111 [     16519] cuts =  0 [   0]
  --> max chng: dpmx=   1.8603E+00 dtmpmx=   6.7116E-02

== TH FLOW =====================================================================
 Step    134 Time=  6.10000E+00 Dt=  5.00000E-02 [y] snes_conv_reason:    3
  newton =   1 [     140] linear =   123 [     16642] cuts =  0 [   0]
  --> max chng: dpmx=   1.8593E+00 dtmpmx=   6.6675E-02

== TH FLOW =====================================================================
 Step    135 Time=  6.15000E+00 Dt=  5.00000E-02 [y] snes_conv_reason:    3
  newton =   1 [     141] linear =   120 [     16762] cuts =  0 [   0]
  --> max chng: dpmx=   1.8579E+00 dtmpmx=   6.6220E-02

== TH FLOW =====================================================================
 Step    136 Time=  6.20000E+00 Dt=  5.00000E-02 [y] snes_conv_reason:    3
  newton =   1 [     142] linear =   121 [     16883] cuts =  0 [   0]
  --> max chng: dpmx=   1.8565E+00 dtmpmx=   6.6086E-02

== TH FLOW =====================================================================
 Step    137 Time=  6.25000E+00 Dt=  5.00000E-02 [y] snes_conv_reason:    3
  newton =   1 [     143] linear =   122 [     17005] cuts =  0 [   0]
  --> max chng: dpmx=   1.8542E+00 dtmpmx=   6.5916E-02

== TH FLOW =====================================================================
 Step    138 Time=  6.30000E+00 Dt=  5.00000E-02 [y] snes_conv_reason:    3
  newton =   1 [     144] linear =   125 [     17130] cuts =  0 [   0]
  --> max chng: dpmx=   1.8529E+00 dtmpmx=   6.5674E-02

== TH FLOW =====================================================================
 Step    139 Time=  6.35000E+00 Dt=  5.00000E-02 [y] snes_conv_reason:    3
  newton =   1 [     145] linear =   122 [     17252] cuts =  0 [   0]
  --> max chng: dpmx=   1.8519E+00 dtmpmx=   6.5361E-02

== TH FLOW =====================================================================
 Step    140 Time=  6.40000E+00 Dt=  5.00000E-02 [y] snes_conv_reason:    3
  newton =   1 [     146] linear =   114 [     17366] cuts =  0 [   0]
  --> max chng: dpmx=   1.8509E+00 dtmpmx=   6.4979E-02

== TH FLOW =====================================================================
 Step    141 Time=  6.45000E+00 Dt=  5.00000E-02 [y] snes_conv_reason:    3
  newton =   1 [     147] linear =   121 [     17487] cuts =  0 [   0]
  --> max chng: dpmx=   1.8487E+00 dtmpmx=   6.4532E-02

== TH FLOW =====================================================================
 Step    142 Time=  6.50000E+00 Dt=  5.00000E-02 [y] snes_conv_reason:    3
  newton =   1 [     148] linear =   122 [     17609] cuts =  0 [   0]
  --> max chng: dpmx=   1.8471E+00 dtmpmx=   6.4317E-02

== TH FLOW =====================================================================
 Step    143 Time=  6.55000E+00 Dt=  5.00000E-02 [y] snes_conv_reason:    3
  newton =   1 [     149] linear =   121 [     17730] cuts =  0 [   0]
  --> max chng: dpmx=   1.8453E+00 dtmpmx=   6.4186E-02

== TH FLOW =====================================================================
 Step    144 Time=  6.60000E+00 Dt=  5.00000E-02 [y] snes_conv_reason:    3
  newton =   1 [     150] linear =   121 [     17851] cuts =  0 [   0]
  --> max chng: dpmx=   1.8444E+00 dtmpmx=   6.3987E-02

== TH FLOW =====================================================================
 Step    145 Time=  6.65000E+00 Dt=  5.00000E-02 [y] snes_conv_reason:    3
  newton =   1 [     151] linear =   117 [     17968] cuts =  0 [   0]
  --> max chng: dpmx=   1.8433E+00 dtmpmx=   6.3723E-02

== TH FLOW =====================================================================
 Step    146 Time=  6.70000E+00 Dt=  5.00000E-02 [y] snes_conv_reason:    3
  newton =   1 [     152] linear =   122 [     18090] cuts =  0 [   0]
  --> max chng: dpmx=   1.8418E+00 dtmpmx=   6.3394E-02

== TH FLOW =====================================================================
 Step    147 Time=  6.75000E+00 Dt=  5.00000E-02 [y] snes_conv_reason:    3
  newton =   1 [     153] linear =   122 [     18212] cuts =  0 [   0]
  --> max chng: dpmx=   1.8397E+00 dtmpmx=   6.3004E-02

== TH FLOW =====================================================================
 Step    148 Time=  6.80000E+00 Dt=  5.00000E-02 [y] snes_conv_reason:    3
  newton =   1 [     154] linear =   121 [     18333] cuts =  0 [   0]
  --> max chng: dpmx=   1.8384E+00 dtmpmx=   6.2672E-02

== TH FLOW =====================================================================
 Step    149 Time=  6.85000E+00 Dt=  5.00000E-02 [y] snes_conv_reason:    3
  newton =   1 [     155] linear =   121 [     18454] cuts =  0 [   0]
  --> max chng: dpmx=   1.8371E+00 dtmpmx=   6.2575E-02

== TH FLOW =====================================================================
 Step    150 Time=  6.90000E+00 Dt=  5.00000E-02 [y] snes_conv_reason:    3
  newton =   1 [     156] linear =   121 [     18575] cuts =  0 [   0]
  --> max chng: dpmx=   1.8358E+00 dtmpmx=   6.2414E-02

== TH FLOW =====================================================================
 Step    151 Time=  6.95000E+00 Dt=  5.00000E-02 [y] snes_conv_reason:    3
  newton =   1 [     157] linear =   122 [     18697] cuts =  0 [   0]
  --> max chng: dpmx=   1.8342E+00 dtmpmx=   6.2191E-02

== TH FLOW =====================================================================
 Step    152 Time=  7.00000E+00 Dt=  5.00000E-02 [y] snes_conv_reason:    3
  newton =   1 [     158] linear =   120 [     18817] cuts =  0 [   0]
  --> max chng: dpmx=   1.8326E+00 dtmpmx=   6.1909E-02

== TH FLOW =====================================================================
 Step    153 Time=  7.05000E+00 Dt=  5.00000E-02 [y] snes_conv_reason:    3
  newton =   1 [     159] linear =   120 [     18937] cuts =  0 [   0]
  --> max chng: dpmx=   1.8307E+00 dtmpmx=   6.1568E-02

== TH FLOW =====================================================================
 Step    154 Time=  7.10000E+00 Dt=  5.00000E-02 [y] snes_conv_reason:    3
  newton =   1 [     160] linear =   120 [     19057] cuts =  0 [   0]
  --> max chng: dpmx=   1.8297E+00 dtmpmx=   6.1171E-02

== TH FLOW =====================================================================
 Step    155 Time=  7.15000E+00 Dt=  5.00000E-02 [y] snes_conv_reason:    3
  newton =   1 [     161] linear =   123 [     19180] cuts =  0 [   0]
  --> max chng: dpmx=   1.8281E+00 dtmpmx=   6.1067E-02

== TH FLOW =====================================================================
 Step    156 Time=  7.20000E+00 Dt=  5.00000E-02 [y] snes_conv_reason:    3
  newton =   1 [     162] linear =   118 [     19298] cuts =  0 [   0]
  --> max chng: dpmx=   1.8269E+00 dtmpmx=   6.0940E-02

== TH FLOW =====================================================================
 Step    157 Time=  7.25000E+00 Dt=  5.00000E-02 [y] snes_conv_reason:    3
  newton =   1 [     163] linear =   122 [     19420] cuts =  0 [   0]
  --> max chng: dpmx=   1.8251E+00 dtmpmx=   6.0755E-02

== TH FLOW =====================================================================
 Step    158 Time=  7.30000E+00 Dt=  5.00000E-02 [y] snes_conv_reason:    3
  newton =   1 [     164] linear =   122 [     19542] cuts =  0 [   0]
  --> max chng: dpmx=   1.8230E+00 dtmpmx=   6.0513E-02

== TH FLOW =====================================================================
 Step    159 Time=  7.35000E+00 Dt=  5.00000E-02 [y] snes_conv_reason:    3
  newton =   1 [     165] linear =   122 [     19664] cuts =  0 [   0]
  --> max chng: dpmx=   1.8224E+00 dtmpmx=   6.0216E-02

== TH FLOW =====================================================================
 Step    160 Time=  7.40000E+00 Dt=  5.00000E-02 [y] snes_conv_reason:    3
  newton =   1 [     166] linear =   123 [     19787] cuts =  0 [   0]
  --> max chng: dpmx=   1.8206E+00 dtmpmx=   5.9866E-02

== TH FLOW =====================================================================
 Step    161 Time=  7.45000E+00 Dt=  5.00000E-02 [y] snes_conv_reason:    3
  newton =   1 [     167] linear =   122 [     19909] cuts =  0 [   0]
  --> max chng: dpmx=   1.8193E+00 dtmpmx=   5.9654E-02

== TH FLOW =====================================================================
 Step    162 Time=  7.50000E+00 Dt=  5.00000E-02 [y] snes_conv_reason:    3
  newton =   1 [     168] linear =   121 [     20030] cuts =  0 [   0]
  --> max chng: dpmx=   1.8176E+00 dtmpmx=   5.9556E-02

== TH FLOW =====================================================================
 Step    163 Time=  7.55000E+00 Dt=  5.00000E-02 [y] snes_conv_reason:    3
  newton =   1 [     169] linear =   125 [     20155] cuts =  0 [   0]
  --> max chng: dpmx=   1.8159E+00 dtmpmx=   5.9403E-02

== TH FLOW =====================================================================
 Step    164 Time=  7.60000E+00 Dt=  5.00000E-02 [y] snes_conv_reason:    3
  newton =   1 [     170] linear =   122 [     20277] cuts =  0 [   0]
  --> max chng: dpmx=   1.8145E+00 dtmpmx=   5.9197E-02

== TH FLOW =====================================================================
 Step    165 Time=  7.65000E+00 Dt=  5.00000E-02 [y] snes_conv_reason:    3
  newton =   1 [     171] linear =   122 [     20399] cuts =  0 [   0]
  --> max chng: dpmx=   1.8134E+00 dtmpmx=   5.8939E-02

== TH FLOW =====================================================================
 Step    166 Time=  7.70000E+00 Dt=  5.00000E-02 [y] snes_conv_reason:    3
  newton =   1 [     172] linear =   122 [     20521] cuts =  0 [   0]
  --> max chng: dpmx=   1.8119E+00 dtmpmx=   5.8631E-02

== TH FLOW =====================================================================
 Step    167 Time=  7.75000E+00 Dt=  5.00000E-02 [y] snes_conv_reason:    3
  newton =   1 [     173] linear =   123 [     20644] cuts =  0 [   0]
  --> max chng: dpmx=   1.8101E+00 dtmpmx=   5.8325E-02

== TH FLOW =====================================================================
 Step    168 Time=  7.80000E+00 Dt=  5.00000E-02 [y] snes_conv_reason:    3
  newton =   1 [     174] linear =   122 [     20766] cuts =  0 [   0]
  --> max chng: dpmx=   1.8081E+00 dtmpmx=   5.8253E-02

== TH FLOW =====================================================================
 Step    169 Time=  7.85000E+00 Dt=  5.00000E-02 [y] snes_conv_reason:    3
  newton =   1 [     175] linear =   122 [     20888] cuts =  0 [   0]
  --> max chng: dpmx=   1.8071E+00 dtmpmx=   5.8129E-02

== TH FLOW =====================================================================
 Step    170 Time=  7.90000E+00 Dt=  5.00000E-02 [y] snes_conv_reason:    3
  newton =   1 [     176] linear =   122 [     21010] cuts =  0 [   0]
  --> max chng: dpmx=   1.8058E+00 dtmpmx=   5.7955E-02

== TH FLOW =====================================================================
 Step    171 Time=  7.95000E+00 Dt=  5.00000E-02 [y] snes_conv_reason:    3
  newton =   1 [     177] linear =   122 [     21132] cuts =  0 [   0]
  --> max chng: dpmx=   1.8041E+00 dtmpmx=   5.7731E-02

== TH FLOW =====================================================================
 Step    172 Time=  8.00000E+00 Dt=  5.00000E-02 [y] snes_conv_reason:    3
  newton =   1 [     178] linear =   123 [     21255] cuts =  0 [   0]
  --> max chng: dpmx=   1.8028E+00 dtmpmx=   5.7460E-02

== TH FLOW =====================================================================
 Step    173 Time=  8.05000E+00 Dt=  5.00000E-02 [y] snes_conv_reason:    3
  newton =   1 [     179] linear =   120 [     21375] cuts =  0 [   0]
  --> max chng: dpmx=   1.8006E+00 dtmpmx=   5.7142E-02

== TH FLOW =====================================================================
 Step    174 Time=  8.10000E+00 Dt=  5.00000E-02 [y] snes_conv_reason:    3
  newton =   1 [     180] linear =   116 [     21491] cuts =  0 [   0]
  --> max chng: dpmx=   1.7993E+00 dtmpmx=   5.7022E-02

== TH FLOW =====================================================================
 Step    175 Time=  8.15000E+00 Dt=  5.00000E-02 [y] snes_conv_reason:    3
  newton =   1 [     181] linear =   124 [     21615] cuts =  0 [   0]
  --> max chng: dpmx=   1.7981E+00 dtmpmx=   5.6924E-02

== TH FLOW =====================================================================
 Step    176 Time=  8.20000E+00 Dt=  5.00000E-02 [y] snes_conv_reason:    3
  newton =   1 [     182] linear =   122 [     21737] cuts =  0 [   0]
  --> max chng: dpmx=   1.7966E+00 dtmpmx=   5.6778E-02

== TH FLOW =====================================================================
 Step    177 Time=  8.25000E+00 Dt=  5.00000E-02 [y] snes_conv_reason:    3
  newton =   1 [     183] linear =   123 [     21860] cuts =  0 [   0]
  --> max chng: dpmx=   1.7954E+00 dtmpmx=   5.6586E-02

== TH FLOW =====================================================================
 Step    178 Time=  8.30000E+00 Dt=  5.00000E-02 [y] snes_conv_reason:    3
  newton =   1 [     184] linear =   123 [     21983] cuts =  0 [   0]
  --> max chng: dpmx=   1.7928E+00 dtmpmx=   5.6348E-02

== TH FLOW =====================================================================
 Step    179 Time=  8.35000E+00 Dt=  5.00000E-02 [y] snes_conv_reason:    3
  newton =   1 [     185] linear =   122 [     22105] cuts =  0 [   0]
  --> max chng: dpmx=   1.7918E+00 dtmpmx=   5.6066E-02

== TH FLOW =====================================================================
 Step    180 Time=  8.40000E+00 Dt=  5.00000E-02 [y] snes_conv_reason:    3
  newton =   1 [     186] linear =   120 [     22225] cuts =  0 [   0]
  --> max chng: dpmx=   1.7903E+00 dtmpmx=   5.5857E-02

== TH FLOW =====================================================================
 Step    181 Time=  8.45000E+00 Dt=  5.00000E-02 [y] snes_conv_reason:    3
  newton =   1 [     187] linear =   119 [     22344] cuts =  0 [   0]
  --> max chng: dpmx=   1.7893E+00 dtmpmx=   5.5782E-02

== TH FLOW =====================================================================
 Step    182 Time=  8.50000E+00 Dt=  5.00000E-02 [y] snes_conv_reason:    3
  newton =   1 [     188] linear =   121 [     22465] cuts =  0 [   0]
  --> max chng: dpmx=   1.7872E+00 dtmpmx=   5.5662E-02

== TH FLOW =====================================================================
 Step    183 Time=  8.55000E+00 Dt=  5.00000E-02 [y] snes_conv_reason:    3
  newton =   1 [     189] linear =   122 [     22587] cuts =  0 [   0]
  --> max chng: dpmx=   1.7853E+00 dtmpmx=   5.5497E-02

== TH FLOW =====================================================================
 Step    184 Time=  8.60000E+00 Dt=  5.00000E-02 [y] snes_conv_reason:    3
  newton =   1 [     190] linear =   120 [     22707] cuts =  0 [   0]
  --> max chng: dpmx=   1.7844E+00 dtmpmx=   5.5289E-02

== TH FLOW =====================================================================
 Step    185 Time=  8.65000E+00 Dt=  5.00000E-02 [y] snes_conv_reason:    3
  newton =   1 [     191] linear =   112 [     22819] cuts =  0 [   0]
  --> max chng: dpmx=   1.7826E+00 dtmpmx=   5.5039E-02

== TH FLOW =====================================================================
 Step    186 Time=  8.70000E+00 Dt=  5.00000E-02 [y] snes_conv_reason:    3
  newton =   1 [     192] linear =   122 [     22941] cuts =  0 [   0]
  --> max chng: dpmx=   1.7814E+00 dtmpmx=   5.4753E-02

== TH FLOW =====================================================================
 Step    187 Time=  8.75000E+00 Dt=  5.00000E-02 [y] snes_conv_reason:    3
  newton =   1 [     193] linear =   121 [     23062] cuts =  0 [   0]
  --> max chng: dpmx=   1.7798E+00 dtmpmx=   5.4699E-02

== TH FLOW =====================================================================
 Step    188 Time=  8.80000E+00 Dt=  5.00000E-02 [y] snes_conv_reason:    3
  newton =   1 [     194] linear =   118 [     23180] cuts =  0 [   0]
  --> max chng: dpmx=   1.7779E+00 dtmpmx=   5.4601E-02

== TH FLOW =====================================================================
 Step    189 Time=  8.85000E+00 Dt=  5.00000E-02 [y] snes_conv_reason:    3
  newton =   1 [     195] linear =   116 [     23296] cuts =  0 [   0]
  --> max chng: dpmx=   1.7760E+00 dtmpmx=   5.4461E-02

== TH FLOW =====================================================================
 Step    190 Time=  8.90000E+00 Dt=  5.00000E-02 [y] snes_conv_reason:    3
  newton =   1 [     196] linear =   114 [     23410] cuts =  0 [   0]
  --> max chng: dpmx=   1.7749E+00 dtmpmx=   5.4280E-02

== TH FLOW =====================================================================
 Step    191 Time=  8.95000E+00 Dt=  5.00000E-02 [y] snes_conv_reason:    3
  newton =   1 [     197] linear =   122 [     23532] cuts =  0 [   0]
  --> max chng: dpmx=   1.7739E+00 dtmpmx=   5.4059E-02

== TH FLOW =====================================================================
 Step    192 Time=  9.00000E+00 Dt=  5.00000E-02 [y] snes_conv_reason:    3
  newton =   1 [     198] linear =   122 [     23654] cuts =  0 [   0]
  --> max chng: dpmx=   1.7718E+00 dtmpmx=   5.3798E-02

== TH FLOW =====================================================================
 Step    193 Time=  9.05000E+00 Dt=  5.00000E-02 [y] snes_conv_reason:    3
  newton =   1 [     199] linear =   123 [     23777] cuts =  0 [   0]
  --> max chng: dpmx=   1.7703E+00 dtmpmx=   5.3668E-02

== TH FLOW =====================================================================
 Step    194 Time=  9.10000E+00 Dt=  5.00000E-02 [y] snes_conv_reason:    3
  newton =   1 [     200] linear =   123 [     23900] cuts =  0 [   0]
  --> max chng: dpmx=   1.7682E+00 dtmpmx=   5.3591E-02

== TH FLOW =====================================================================
 Step    195 Time=  9.15000E+00 Dt=  5.00000E-02 [y] snes_conv_reason:    3
  newton =   1 [     201] linear =   124 [     24024] cuts =  0 [   0]
  --> max chng: dpmx=   1.7673E+00 dtmpmx=   5.3474E-02

== TH FLOW =====================================================================
 Step    196 Time=  9.20000E+00 Dt=  5.00000E-02 [y] snes_conv_reason:    3
  newton =   1 [     202] linear =   123 [     24147] cuts =  0 [   0]
  --> max chng: dpmx=   1.7658E+00 dtmpmx=   5.3317E-02

== TH FLOW =====================================================================
 Step    197 Time=  9.25000E+00 Dt=  5.00000E-02 [y] snes_conv_reason:    3
  newton =   1 [     203] linear =   122 [     24269] cuts =  0 [   0]
  --> max chng: dpmx=   1.7645E+00 dtmpmx=   5.3121E-02

== TH FLOW =====================================================================
 Step    198 Time=  9.30000E+00 Dt=  5.00000E-02 [y] snes_conv_reason:    3
  newton =   1 [     204] linear =   115 [     24384] cuts =  0 [   0]
  --> max chng: dpmx=   1.7622E+00 dtmpmx=   5.2888E-02

== TH FLOW =====================================================================
 Step    199 Time=  9.35000E+00 Dt=  5.00000E-02 [y] snes_conv_reason:    3
  newton =   1 [     205] linear =   123 [     24507] cuts =  0 [   0]
  --> max chng: dpmx=   1.7607E+00 dtmpmx=   5.2686E-02

== TH FLOW =====================================================================
 Step    200 Time=  9.40000E+00 Dt=  5.00000E-02 [y] snes_conv_reason:    3
  newton =   1 [     206] linear =   119 [     24626] cuts =  0 [   0]
  --> max chng: dpmx=   1.7592E+00 dtmpmx=   5.2627E-02

== TH FLOW =====================================================================
 Step    201 Time=  9.45000E+00 Dt=  5.00000E-02 [y] snes_conv_reason:    3
  newton =   1 [     207] linear =   119 [     24745] cuts =  0 [   0]
  --> max chng: dpmx=   1.7582E+00 dtmpmx=   5.2530E-02

== TH FLOW =====================================================================
 Step    202 Time=  9.50000E+00 Dt=  5.00000E-02 [y] snes_conv_reason:    3
  newton =   1 [     208] linear =   121 [     24866] cuts =  0 [   0]
  --> max chng: dpmx=   1.7564E+00 dtmpmx=   5.2396E-02

== TH FLOW =====================================================================
 Step    203 Time=  9.55000E+00 Dt=  5.00000E-02 [y] snes_conv_reason:    3
  newton =   1 [     209] linear =   121 [     24987] cuts =  0 [   0]
  --> max chng: dpmx=   1.7547E+00 dtmpmx=   5.2224E-02

== TH FLOW =====================================================================
 Step    204 Time=  9.60000E+00 Dt=  5.00000E-02 [y] snes_conv_reason:    3
  newton =   1 [     210] linear =   118 [     25105] cuts =  0 [   0]
  --> max chng: dpmx=   1.7524E+00 dtmpmx=   5.2016E-02

== TH FLOW =====================================================================
 Step    205 Time=  9.65000E+00 Dt=  5.00000E-02 [y] snes_conv_reason:    3
  newton =   1 [     211] linear =   122 [     25227] cuts =  0 [   0]
  --> max chng: dpmx=   1.7518E+00 dtmpmx=   5.1773E-02

== TH FLOW =====================================================================
 Step    206 Time=  9.70000E+00 Dt=  5.00000E-02 [y] snes_conv_reason:    3
  newton =   1 [     212] linear =   119 [     25346] cuts =  0 [   0]
  --> max chng: dpmx=   1.7499E+00 dtmpmx=   5.1707E-02

== TH FLOW =====================================================================
 Step    207 Time=  9.75000E+00 Dt=  5.00000E-02 [y] snes_conv_reason:    3
  newton =   1 [     213] linear =   122 [     25468] cuts =  0 [   0]
  --> max chng: dpmx=   1.7487E+00 dtmpmx=   5.1628E-02

== TH FLOW =====================================================================
 Step    208 Time=  9.80000E+00 Dt=  5.00000E-02 [y] snes_conv_reason:    3
  newton =   1 [     214] linear =   122 [     25590] cuts =  0 [   0]
  --> max chng: dpmx=   1.7470E+00 dtmpmx=   5.1514E-02

== TH FLOW =====================================================================
 Step    209 Time=  9.85000E+00 Dt=  5.00000E-02 [y] snes_conv_reason:    3
  newton =   1 [     215] linear =   121 [     25711] cuts =  0 [   0]
  --> max chng: dpmx=   1.7452E+00 dtmpmx=   5.1363E-02

== TH FLOW =====================================================================
 Step    210 Time=  9.90000E+00 Dt=  5.00000E-02 [y] snes_conv_reason:    3
  newton =   1 [     216] linear =   123 [     25834] cuts =  0 [   0]
  --> max chng: dpmx=   1.7435E+00 dtmpmx=   5.1179E-02

== TH FLOW =====================================================================
 Step    211 Time=  9.95000E+00 Dt=  5.00000E-02 [y] snes_conv_reason:    3
  newton =   1 [     217] linear =   123 [     25957] cuts =  0 [   0]
  --> max chng: dpmx=   1.7420E+00 dtmpmx=   5.0960E-02

== TH FLOW =====================================================================
 Step    212 Time=  1.00000E+01 Dt=  5.00000E-02 [y] snes_conv_reason:    3
  newton =   1 [     218] linear =   121 [     26078] cuts =  0 [   0]
  --> max chng: dpmx=   1.7410E+00 dtmpmx=   5.0826E-02

== TH FLOW =====================================================================
 Step    213 Time=  1.00500E+01 Dt=  5.00000E-02 [y] snes_conv_reason:    3
  newton =   1 [     219] linear =   121 [     26199] cuts =  0 [   0]
  --> max chng: dpmx=   1.7391E+00 dtmpmx=   5.0764E-02

== TH FLOW =====================================================================
 Step    214 Time=  1.01000E+01 Dt=  5.00000E-02 [y] snes_conv_reason:    3
  newton =   1 [     220] linear =   121 [     26320] cuts =  0 [   0]
  --> max chng: dpmx=   1.7372E+00 dtmpmx=   5.0668E-02

== TH FLOW =====================================================================
 Step    215 Time=  1.01500E+01 Dt=  5.00000E-02 [y] snes_conv_reason:    3
  newton =   1 [     221] linear =   121 [     26441] cuts =  0 [   0]
  --> max chng: dpmx=   1.7356E+00 dtmpmx=   5.0538E-02

== TH FLOW =====================================================================
 Step    216 Time=  1.02000E+01 Dt=  5.00000E-02 [y] snes_conv_reason:    3
  newton =   1 [     222] linear =   121 [     26562] cuts =  0 [   0]
  --> max chng: dpmx=   1.7341E+00 dtmpmx=   5.0374E-02

== TH FLOW =====================================================================
 Step    217 Time=  1.02500E+01 Dt=  5.00000E-02 [y] snes_conv_reason:    3
  newton =   1 [     223] linear =   120 [     26682] cuts =  0 [   0]
  --> max chng: dpmx=   1.7327E+00 dtmpmx=   5.0178E-02

== TH FLOW =====================================================================
 Step    218 Time=  1.03000E+01 Dt=  5.00000E-02 [y] snes_conv_reason:    3
  newton =   1 [     224] linear =   111 [     26793] cuts =  0 [   0]
  --> max chng: dpmx=   1.7314E+00 dtmpmx=   4.9983E-02

== TH FLOW =====================================================================
 Step    219 Time=  1.03500E+01 Dt=  5.00000E-02 [y] snes_conv_reason:    3
  newton =   1 [     225] linear =   111 [     26904] cuts =  0 [   0]
  --> max chng: dpmx=   1.7291E+00 dtmpmx=   4.9936E-02

== TH FLOW =====================================================================
 Step    220 Time=  1.04000E+01 Dt=  5.00000E-02 [y] snes_conv_reason:    3
  newton =   1 [     226] linear =   115 [     27019] cuts =  0 [   0]
  --> max chng: dpmx=   1.7278E+00 dtmpmx=   4.9856E-02

== TH FLOW =====================================================================
 Step    221 Time=  1.04500E+01 Dt=  5.00000E-02 [y] snes_conv_reason:    3
  newton =   1 [     227] linear =   124 [     27143] cuts =  0 [   0]
  --> max chng: dpmx=   1.7262E+00 dtmpmx=   4.9744E-02

== TH FLOW =====================================================================
 Step    222 Time=  1.05000E+01 Dt=  5.00000E-02 [y] snes_conv_reason:    3
  newton =   1 [     228] linear =   122 [     27265] cuts =  0 [   0]
  --> max chng: dpmx=   1.7249E+00 dtmpmx=   4.9599E-02

== TH FLOW =====================================================================
 Step    223 Time=  1.05500E+01 Dt=  5.00000E-02 [y] snes_conv_reason:    3
  newton =   1 [     229] linear =   121 [     27386] cuts =  0 [   0]
  --> max chng: dpmx=   1.7234E+00 dtmpmx=   4.9424E-02

== TH FLOW =====================================================================
 Step    224 Time=  1.06000E+01 Dt=  5.00000E-02 [y] snes_conv_reason:    3
  newton =   1 [     230] linear =   106 [     27492] cuts =  0 [   0]
  --> max chng: dpmx=   1.7214E+00 dtmpmx=   4.9218E-02

== TH FLOW =====================================================================
 Step    225 Time=  1.06500E+01 Dt=  5.00000E-02 [y] snes_conv_reason:    3
  newton =   1 [     231] linear =   121 [     27613] cuts =  0 [   0]
  --> max chng: dpmx=   1.7197E+00 dtmpmx=   4.9141E-02

== TH FLOW =====================================================================
 Step    226 Time=  1.07000E+01 Dt=  5.00000E-02 [y] snes_conv_reason:    3
  newton =   1 [     232] linear =   121 [     27734] cuts =  0 [   0]
  --> max chng: dpmx=   1.7184E+00 dtmpmx=   4.9076E-02

== TH FLOW =====================================================================
 Step    227 Time=  1.07500E+01 Dt=  5.00000E-02 [y] snes_conv_reason:    3
  newton =   1 [     233] linear =   121 [     27855] cuts =  0 [   0]
  --> max chng: dpmx=   1.7168E+00 dtmpmx=   4.8980E-02

== TH FLOW =====================================================================
 Step    228 Time=  1.08000E+01 Dt=  5.00000E-02 [y] snes_conv_reason:    3
  newton =   1 [     234] linear =   122 [     27977] cuts =  0 [   0]
  --> max chng: dpmx=   1.7155E+00 dtmpmx=   4.8853E-02

== TH FLOW =====================================================================
 Step    229 Time=  1.08500E+01 Dt=  5.00000E-02 [y] snes_conv_reason:    3
  newton =   1 [     235] linear =   122 [     28099] cuts =  0 [   0]
  --> max chng: dpmx=   1.7137E+00 dtmpmx=   4.8697E-02

== TH FLOW =====================================================================
 Step    230 Time=  1.09000E+01 Dt=  5.00000E-02 [y] snes_conv_reason:    3
  newton =   1 [     236] linear =   120 [     28219] cuts =  0 [   0]
  --> max chng: dpmx=   1.7121E+00 dtmpmx=   4.8511E-02

== TH FLOW =====================================================================
 Step    231 Time=  1.09500E+01 Dt=  5.00000E-02 [y] snes_conv_reason:    3
  newton =   1 [     237] linear =   119 [     28338] cuts =  0 [   0]
  --> max chng: dpmx=   1.7097E+00 dtmpmx=   4.8376E-02

== TH FLOW =====================================================================
 Step    232 Time=  1.10000E+01 Dt=  5.00000E-02 [y] snes_conv_reason:    3
  newton =   1 [     238] linear =   119 [     28457] cuts =  0 [   0]
  --> max chng: dpmx=   1.7089E+00 dtmpmx=   4.8325E-02

== TH FLOW =====================================================================
 Step    233 Time=  1.10500E+01 Dt=  5.00000E-02 [y] snes_conv_reason:    3
  newton =   1 [     239] linear =   120 [     28577] cuts =  0 [   0]
  --> max chng: dpmx=   1.7078E+00 dtmpmx=   4.8245E-02

== TH FLOW =====================================================================
 Step    234 Time=  1.11000E+01 Dt=  5.00000E-02 [y] snes_conv_reason:    3
  newton =   1 [     240] linear =   119 [     28696] cuts =  0 [   0]
  --> max chng: dpmx=   1.7056E+00 dtmpmx=   4.8134E-02

== TH FLOW =====================================================================
 Step    235 Time=  1.11500E+01 Dt=  5.00000E-02 [y] snes_conv_reason:    3
  newton =   1 [     241] linear =   119 [     28815] cuts =  0 [   0]
  --> max chng: dpmx=   1.7041E+00 dtmpmx=   4.7995E-02

== TH FLOW =====================================================================
 Step    236 Time=  1.12000E+01 Dt=  5.00000E-02 [y] snes_conv_reason:    3
  newton =   1 [     242] linear =   119 [     28934] cuts =  0 [   0]
  --> max chng: dpmx=   1.7019E+00 dtmpmx=   4.7827E-02

== TH FLOW =====================================================================
 Step    237 Time=  1.12500E+01 Dt=  5.00000E-02 [y] snes_conv_reason:    3
  newton =   1 [     243] linear =   117 [     29051] cuts =  0 [   0]
  --> max chng: dpmx=   1.7009E+00 dtmpmx=   4.7641E-02

== TH FLOW =====================================================================
 Step    238 Time=  1.13000E+01 Dt=  5.00000E-02 [y] snes_conv_reason:    3
  newton =   1 [     244] linear =   118 [     29169] cuts =  0 [   0]
  --> max chng: dpmx=   1.6995E+00 dtmpmx=   4.7603E-02

== TH FLOW =====================================================================
 Step    239 Time=  1.13500E+01 Dt=  5.00000E-02 [y] snes_conv_reason:    3
  newton =   1 [     245] linear =   118 [     29287] cuts =  0 [   0]
  --> max chng: dpmx=   1.6981E+00 dtmpmx=   4.7536E-02

== TH FLOW =====================================================================
 Step    240 Time=  1.14000E+01 Dt=  5.00000E-02 [y] snes_conv_reason:    3
  newton =   1 [     246] linear =   122 [     29409] cuts =  0 [   0]
  --> max chng: dpmx=   1.6958E+00 dtmpmx=   4.7440E-02

== TH FLOW =====================================================================
 Step    241 Time=  1.14500E+01 Dt=  5.00000E-02 [y] snes_conv_reason:    3
  newton =   1 [     247] linear =   119 [     29528] cuts =  0 [   0]
  --> max chng: dpmx=   1.6944E+00 dtmpmx=   4.7317E-02

== TH FLOW =====================================================================
 Step    242 Time=  1.15000E+01 Dt=  5.00000E-02 [y] snes_conv_reason:    3
  newton =   1 [     248] linear =   121 [     29649] cuts =  0 [   0]
  --> max chng: dpmx=   1.6928E+00 dtmpmx=   4.7166E-02

== TH FLOW =====================================================================
 Step    243 Time=  1.15500E+01 Dt=  5.00000E-02 [y] snes_conv_reason:    3
  newton =   1 [     249] linear =   122 [     29771] cuts =  0 [   0]
  --> max chng: dpmx=   1.6914E+00 dtmpmx=   4.6989E-02

== TH FLOW =====================================================================
 Step    244 Time=  1.16000E+01 Dt=  5.00000E-02 [y] snes_conv_reason:    3
  newton =   1 [     250] linear =   122 [     29893] cuts =  0 [   0]
  --> max chng: dpmx=   1.6898E+00 dtmpmx=   4.6906E-02

== TH FLOW =====================================================================
 Step    245 Time=  1.16500E+01 Dt=  5.00000E-02 [y] snes_conv_reason:    3
  newton =   1 [     251] linear =   122 [     30015] cuts =  0 [   0]
  --> max chng: dpmx=   1.6881E+00 dtmpmx=   4.6851E-02

== TH FLOW =====================================================================
 Step    246 Time=  1.17000E+01 Dt=  5.00000E-02 [y] snes_conv_reason:    3
  newton =   1 [     252] linear =   122 [     30137] cuts =  0 [   0]
  --> max chng: dpmx=   1.6863E+00 dtmpmx=   4.6770E-02

== TH FLOW =====================================================================
 Step    247 Time=  1.17500E+01 Dt=  5.00000E-02 [y] snes_conv_reason:    3
  newton =   1 [     253] linear =   118 [     30255] cuts =  0 [   0]
  --> max chng: dpmx=   1.6849E+00 dtmpmx=   4.6661E-02

== TH FLOW =====================================================================
 Step    248 Time=  1.18000E+01 Dt=  5.00000E-02 [y] snes_conv_reason:    3
  newton =   1 [     254] linear =   119 [     30374] cuts =  0 [   0]
  --> max chng: dpmx=   1.6832E+00 dtmpmx=   4.6526E-02

== TH FLOW =====================================================================
 Step    249 Time=  1.18500E+01 Dt=  5.00000E-02 [y] snes_conv_reason:    3
  newton =   1 [     255] linear =   121 [     30495] cuts =  0 [   0]
  --> max chng: dpmx=   1.6819E+00 dtmpmx=   4.6365E-02

== TH FLOW =====================================================================
 Step    250 Time=  1.19000E+01 Dt=  5.00000E-02 [y] snes_conv_reason:    3
  newton =   1 [     256] linear =   122 [     30617] cuts =  0 [   0]
  --> max chng: dpmx=   1.6800E+00 dtmpmx=   4.6233E-02

== TH FLOW =====================================================================
 Step    251 Time=  1.19500E+01 Dt=  5.00000E-02 [y] snes_conv_reason:    3
  newton =   1 [     257] linear =   122 [     30739] cuts =  0 [   0]
  --> max chng: dpmx=   1.6784E+00 dtmpmx=   4.6191E-02

== TH FLOW =====================================================================
 Step    252 Time=  1.20000E+01 Dt=  5.00000E-02 [y] snes_conv_reason:    3
  newton =   1 [     258] linear =   120 [     30859] cuts =  0 [   0]
  --> max chng: dpmx=   1.6764E+00 dtmpmx=   4.6122E-02

== TH FLOW =====================================================================
 Step    253 Time=  1.20500E+01 Dt=  5.00000E-02 [y] snes_conv_reason:    3
  newton =   1 [     259] linear =   122 [     30981] cuts =  0 [   0]
  --> max chng: dpmx=   1.6754E+00 dtmpmx=   4.6027E-02

== TH FLOW =====================================================================
 Step    254 Time=  1.21000E+01 Dt=  5.00000E-02 [y] snes_conv_reason:    3
  newton =   1 [     260] linear =   122 [     31103] cuts =  0 [   0]
  --> max chng: dpmx=   1.6738E+00 dtmpmx=   4.5907E-02

== TH FLOW =====================================================================
 Step    255 Time=  1.21500E+01 Dt=  5.00000E-02 [y] snes_conv_reason:    3
  newton =   1 [     261] linear =   119 [     31222] cuts =  0 [   0]
  --> max chng: dpmx=   1.6721E+00 dtmpmx=   4.5761E-02

== TH FLOW =====================================================================
 Step    256 Time=  1.22000E+01 Dt=  5.00000E-02 [y] snes_conv_reason:    3
  newton =   1 [     262] linear =   121 [     31343] cuts =  0 [   0]
  --> max chng: dpmx=   1.6707E+00 dtmpmx=   4.5591E-02

== TH FLOW =====================================================================
 Step    257 Time=  1.22500E+01 Dt=  5.00000E-02 [y] snes_conv_reason:    3
  newton =   1 [     263] linear =   121 [     31464] cuts =  0 [   0]
  --> max chng: dpmx=   1.6685E+00 dtmpmx=   4.5552E-02

[...]
 Step    493 Time=  2.40500E+01 Dt=  5.00000E-02 [y] snes_conv_reason:    3
  newton =   1 [     499] linear =   121 [     59623] cuts =  0 [   0]
  --> max chng: dpmx=   1.2842E+00 dtmpmx=   3.1258E-02

== TH FLOW =====================================================================
 Step    494 Time=  2.41000E+01 Dt=  5.00000E-02 [y] snes_conv_reason:    3
  newton =   1 [     500] linear =   112 [     59735] cuts =  0 [   0]
  --> max chng: dpmx=   1.2825E+00 dtmpmx=   3.1219E-02

== TH FLOW =====================================================================
 Step    495 Time=  2.41500E+01 Dt=  5.00000E-02 [y] snes_conv_reason:    3
  newton =   1 [     501] linear =   111 [     59846] cuts =  0 [   0]
  --> max chng: dpmx=   1.2809E+00 dtmpmx=   3.1170E-02

== TH FLOW =====================================================================
 Step    496 Time=  2.42000E+01 Dt=  5.00000E-02 [y] snes_conv_reason:    3
  newton =   1 [     502] linear =   118 [     59964] cuts =  0 [   0]
  --> max chng: dpmx=   1.2792E+00 dtmpmx=   3.1113E-02

== TH FLOW =====================================================================
 Step    497 Time=  2.42500E+01 Dt=  5.00000E-02 [y] snes_conv_reason:    3
  newton =   1 [     503] linear =   118 [     60082] cuts =  0 [   0]
  --> max chng: dpmx=   1.2777E+00 dtmpmx=   3.1078E-02

== TH FLOW =====================================================================
 Step    498 Time=  2.43000E+01 Dt=  5.00000E-02 [y] snes_conv_reason:    3
  newton =   1 [     504] linear =   119 [     60201] cuts =  0 [   0]
  --> max chng: dpmx=   1.2759E+00 dtmpmx=   3.1059E-02

== TH FLOW =====================================================================
 Step    499 Time=  2.43500E+01 Dt=  5.00000E-02 [y] snes_conv_reason:    3
  newton =   1 [     505] linear =   121 [     60322] cuts =  0 [   0]
  --> max chng: dpmx=   1.2745E+00 dtmpmx=   3.1032E-02

== TH FLOW =====================================================================
 Step    500 Time=  2.44000E+01 Dt=  5.00000E-02 [y] snes_conv_reason:    3
  newton =   1 [     506] linear =   120 [     60442] cuts =  0 [   0]
  --> max chng: dpmx=   1.2725E+00 dtmpmx=   3.0995E-02

== TH FLOW =====================================================================
 Step    501 Time=  2.44500E+01 Dt=  5.00000E-02 [y] snes_conv_reason:    3
  newton =   1 [     507] linear =   119 [     60561] cuts =  0 [   0]
  --> max chng: dpmx=   1.2710E+00 dtmpmx=   3.0950E-02

== TH FLOW =====================================================================
 Step    502 Time=  2.45000E+01 Dt=  5.00000E-02 [y] snes_conv_reason:    3
  newton =   1 [     508] linear =   120 [     60681] cuts =  0 [   0]
  --> max chng: dpmx=   1.2694E+00 dtmpmx=   3.0896E-02

== TH FLOW =====================================================================
 Step    503 Time=  2.45500E+01 Dt=  5.00000E-02 [y] snes_conv_reason:    3
  newton =   1 [     509] linear =   120 [     60801] cuts =  0 [   0]
  --> max chng: dpmx=   1.2678E+00 dtmpmx=   3.0849E-02

== TH FLOW =====================================================================
 Step    504 Time=  2.46000E+01 Dt=  5.00000E-02 [y] snes_conv_reason:    3
  newton =   1 [     510] linear =   120 [     60921] cuts =  0 [   0]
  --> max chng: dpmx=   1.2663E+00 dtmpmx=   3.0833E-02

== TH FLOW =====================================================================
 Step    505 Time=  2.46500E+01 Dt=  5.00000E-02 [y] snes_conv_reason:    3
  newton =   1 [     511] linear =   120 [     61041] cuts =  0 [   0]
  --> max chng: dpmx=   1.2643E+00 dtmpmx=   3.0808E-02

== TH FLOW =====================================================================
 Step    506 Time=  2.47000E+01 Dt=  5.00000E-02 [y] snes_conv_reason:    3
  newton =   1 [     512] linear =   115 [     61156] cuts =  0 [   0]
  --> max chng: dpmx=   1.2628E+00 dtmpmx=   3.0775E-02

== TH FLOW =====================================================================
 Step    507 Time=  2.47500E+01 Dt=  5.00000E-02 [y] snes_conv_reason:    3
  newton =   1 [     513] linear =   111 [     61267] cuts =  0 [   0]
  --> max chng: dpmx=   1.2610E+00 dtmpmx=   3.0733E-02

== TH FLOW =====================================================================
 Step    508 Time=  2.48000E+01 Dt=  5.00000E-02 [y] snes_conv_reason:    3
  newton =   1 [     514] linear =   120 [     61387] cuts =  0 [   0]
  --> max chng: dpmx=   1.2596E+00 dtmpmx=   3.0683E-02

== TH FLOW =====================================================================
 Step    509 Time=  2.48500E+01 Dt=  5.00000E-02 [y] snes_conv_reason:    3
  newton =   1 [     515] linear =   121 [     61508] cuts =  0 [   0]
  --> max chng: dpmx=   1.2580E+00 dtmpmx=   3.0624E-02

== TH FLOW =====================================================================
 Step    510 Time=  2.49000E+01 Dt=  5.00000E-02 [y] snes_conv_reason:    3
  newton =   1 [     516] linear =   119 [     61627] cuts =  0 [   0]
  --> max chng: dpmx=   1.2563E+00 dtmpmx=   3.0610E-02

== TH FLOW =====================================================================
 Step    511 Time=  2.49500E+01 Dt=  5.00000E-02 [y] snes_conv_reason:    3
  newton =   1 [     517] linear =   121 [     61748] cuts =  0 [   0]
  --> max chng: dpmx=   1.2545E+00 dtmpmx=   3.0588E-02

== TH FLOW =====================================================================
 Step    512 Time=  2.50000E+01 Dt=  5.00000E-02 [y] snes_conv_reason:    3
  newton =   1 [     518] linear =   120 [     61868] cuts =  0 [   0]
  --> max chng: dpmx=   1.2529E+00 dtmpmx=   3.0558E-02

== TH FLOW =====================================================================
 Step    513 Time=  2.50500E+01 Dt=  5.00000E-02 [y] snes_conv_reason:    3
  newton =   1 [     519] linear =   120 [     61988] cuts =  0 [   0]
  --> max chng: dpmx=   1.2513E+00 dtmpmx=   3.0519E-02

== TH FLOW =====================================================================
 Step    514 Time=  2.51000E+01 Dt=  5.00000E-02 [y] snes_conv_reason:    3
  newton =   1 [     520] linear =   124 [     62112] cuts =  0 [   0]
  --> max chng: dpmx=   1.2498E+00 dtmpmx=   3.0472E-02

== TH FLOW =====================================================================
 Step    515 Time=  2.51500E+01 Dt=  5.00000E-02 [y] snes_conv_reason:    3
  newton =   1 [     521] linear =   120 [     62232] cuts =  0 [   0]
  --> max chng: dpmx=   1.2482E+00 dtmpmx=   3.0417E-02

== TH FLOW =====================================================================
 Step    516 Time=  2.52000E+01 Dt=  5.00000E-02 [y] snes_conv_reason:    3
  newton =   1 [     522] linear =   120 [     62352] cuts =  0 [   0]
  --> max chng: dpmx=   1.2463E+00 dtmpmx=   3.0390E-02

== TH FLOW =====================================================================
 Step    517 Time=  2.52500E+01 Dt=  5.00000E-02 [y] snes_conv_reason:    3
  newton =   1 [     523] linear =   121 [     62473] cuts =  0 [   0]
  --> max chng: dpmx=   1.2445E+00 dtmpmx=   3.0371E-02

== TH FLOW =====================================================================
 Step    518 Time=  2.53000E+01 Dt=  5.00000E-02 [y] snes_conv_reason:    3
  newton =   1 [     524] linear =   121 [     62594] cuts =  0 [   0]
  --> max chng: dpmx=   1.2430E+00 dtmpmx=   3.0344E-02

== TH FLOW =====================================================================
 Step    519 Time=  2.53500E+01 Dt=  5.00000E-02 [y] snes_conv_reason:    3
  newton =   1 [     525] linear =   120 [     62714] cuts =  0 [   0]
  --> max chng: dpmx=   1.2416E+00 dtmpmx=   3.0308E-02

== TH FLOW =====================================================================
 Step    520 Time=  2.54000E+01 Dt=  5.00000E-02 [y] snes_conv_reason:    3
  newton =   1 [     526] linear =   122 [     62836] cuts =  0 [   0]
  --> max chng: dpmx=   1.2398E+00 dtmpmx=   3.0264E-02

== TH FLOW =====================================================================
 Step    521 Time=  2.54500E+01 Dt=  5.00000E-02 [y] snes_conv_reason:    3
  newton =   1 [     527] linear =   120 [     62956] cuts =  0 [   0]
  --> max chng: dpmx=   1.2383E+00 dtmpmx=   3.0212E-02

== TH FLOW =====================================================================
 Step    522 Time=  2.55000E+01 Dt=  5.00000E-02 [y] snes_conv_reason:    3
  newton =   1 [     528] linear =   120 [     63076] cuts =  0 [   0]
  --> max chng: dpmx=   1.2365E+00 dtmpmx=   3.0174E-02

== TH FLOW =====================================================================
 Step    523 Time=  2.55500E+01 Dt=  5.00000E-02 [y] snes_conv_reason:    3
  newton =   1 [     529] linear =   119 [     63195] cuts =  0 [   0]
  --> max chng: dpmx=   1.2346E+00 dtmpmx=   3.0157E-02

== TH FLOW =====================================================================
 Step    524 Time=  2.56000E+01 Dt=  5.00000E-02 [y] snes_conv_reason:    3
  newton =   1 [     530] linear =   115 [     63310] cuts =  0 [   0]
  --> max chng: dpmx=   1.2329E+00 dtmpmx=   3.0132E-02

== TH FLOW =====================================================================
 Step    525 Time=  2.56500E+01 Dt=  5.00000E-02 [y] snes_conv_reason:    3
  newton =   1 [     531] linear =   115 [     63425] cuts =  0 [   0]
  --> max chng: dpmx=   1.2318E+00 dtmpmx=   3.0100E-02

== TH FLOW =====================================================================
 Step    526 Time=  2.57000E+01 Dt=  5.00000E-02 [y] snes_conv_reason:    3
  newton =   1 [     532] linear =   121 [     63546] cuts =  0 [   0]
  --> max chng: dpmx=   1.2301E+00 dtmpmx=   3.0059E-02

== TH FLOW =====================================================================
 Step    527 Time=  2.57500E+01 Dt=  5.00000E-02 [y] snes_conv_reason:    3
  newton =   1 [     533] linear =   115 [     63661] cuts =  0 [   0]
  --> max chng: dpmx=   1.2283E+00 dtmpmx=   3.0010E-02

== TH FLOW =====================================================================
 Step    528 Time=  2.58000E+01 Dt=  5.00000E-02 [y] snes_conv_reason:    3
  newton =   1 [     534] linear =   119 [     63780] cuts =  0 [   0]
  --> max chng: dpmx=   1.2266E+00 dtmpmx=   2.9961E-02

== TH FLOW =====================================================================
 Step    529 Time=  2.58500E+01 Dt=  5.00000E-02 [y] snes_conv_reason:    3
  newton =   1 [     535] linear =   118 [     63898] cuts =  0 [   0]
  --> max chng: dpmx=   1.2246E+00 dtmpmx=   2.9946E-02

== TH FLOW =====================================================================
 Step    530 Time=  2.59000E+01 Dt=  5.00000E-02 [y] snes_conv_reason:    3
  newton =   1 [     536] linear =   119 [     64017] cuts =  0 [   0]
  --> max chng: dpmx=   1.2236E+00 dtmpmx=   2.9924E-02

== TH FLOW =====================================================================
 Step    531 Time=  2.59500E+01 Dt=  5.00000E-02 [y] snes_conv_reason:    3
  newton =   1 [     537] linear =   119 [     64136] cuts =  0 [   0]
  --> max chng: dpmx=   1.2217E+00 dtmpmx=   2.9894E-02

== TH FLOW =====================================================================
 Step    532 Time=  2.60000E+01 Dt=  5.00000E-02 [y] snes_conv_reason:    3
  newton =   1 [     538] linear =   119 [     64255] cuts =  0 [   0]
  --> max chng: dpmx=   1.2203E+00 dtmpmx=   2.9856E-02

== TH FLOW =====================================================================
 Step    533 Time=  2.60500E+01 Dt=  5.00000E-02 [y] snes_conv_reason:    3
  newton =   1 [     539] linear =   119 [     64374] cuts =  0 [   0]
  --> max chng: dpmx=   1.2184E+00 dtmpmx=   2.9810E-02

== TH FLOW =====================================================================
 Step    534 Time=  2.61000E+01 Dt=  5.00000E-02 [y] snes_conv_reason:    3
  newton =   1 [     540] linear =   120 [     64494] cuts =  0 [   0]
  --> max chng: dpmx=   1.2165E+00 dtmpmx=   2.9757E-02

== TH FLOW =====================================================================
 Step    535 Time=  2.61500E+01 Dt=  5.00000E-02 [y] snes_conv_reason:    3
  newton =   1 [     541] linear =   120 [     64614] cuts =  0 [   0]
  --> max chng: dpmx=   1.2151E+00 dtmpmx=   2.9738E-02

== TH FLOW =====================================================================
 Step    536 Time=  2.62000E+01 Dt=  5.00000E-02 [y] snes_conv_reason:    3
  newton =   1 [     542] linear =   118 [     64732] cuts =  0 [   0]
  --> max chng: dpmx=   1.2135E+00 dtmpmx=   2.9719E-02

== TH FLOW =====================================================================
 Step    537 Time=  2.62500E+01 Dt=  5.00000E-02 [y] snes_conv_reason:    3
  newton =   1 [     543] linear =   118 [     64850] cuts =  0 [   0]
  --> max chng: dpmx=   1.2120E+00 dtmpmx=   2.9691E-02

== TH FLOW =====================================================================
 Step    538 Time=  2.63000E+01 Dt=  5.00000E-02 [y] snes_conv_reason:    3
  newton =   1 [     544] linear =   118 [     64968] cuts =  0 [   0]
  --> max chng: dpmx=   1.2099E+00 dtmpmx=   2.9656E-02

== TH FLOW =====================================================================
 Step    539 Time=  2.63500E+01 Dt=  5.00000E-02 [y] snes_conv_reason:    3
  newton =   1 [     545] linear =   118 [     65086] cuts =  0 [   0]
  --> max chng: dpmx=   1.2083E+00 dtmpmx=   2.9613E-02

== TH FLOW =====================================================================
 Step    540 Time=  2.64000E+01 Dt=  5.00000E-02 [y] snes_conv_reason:    3
  newton =   1 [     546] linear =   119 [     65205] cuts =  0 [   0]
  --> max chng: dpmx=   1.2071E+00 dtmpmx=   2.9563E-02

== TH FLOW =====================================================================
 Step    541 Time=  2.64500E+01 Dt=  5.00000E-02 [y] snes_conv_reason:    3
  newton =   1 [     547] linear =   118 [     65323] cuts =  0 [   0]
  --> max chng: dpmx=   1.2053E+00 dtmpmx=   2.9533E-02

== TH FLOW =====================================================================
 Step    542 Time=  2.65000E+01 Dt=  5.00000E-02 [y] snes_conv_reason:    3
  newton =   1 [     548] linear =   123 [     65446] cuts =  0 [   0]
  --> max chng: dpmx=   1.2035E+00 dtmpmx=   2.9516E-02

== TH FLOW =====================================================================
 Step    543 Time=  2.65500E+01 Dt=  5.00000E-02 [y] snes_conv_reason:    3
  newton =   1 [     549] linear =   116 [     65562] cuts =  0 [   0]
  --> max chng: dpmx=   1.2017E+00 dtmpmx=   2.9491E-02

== TH FLOW =====================================================================
 Step    544 Time=  2.66000E+01 Dt=  5.00000E-02 [y] snes_conv_reason:    3
  newton =   1 [     550] linear =   118 [     65680] cuts =  0 [   0]
  --> max chng: dpmx=   1.2007E+00 dtmpmx=   2.9459E-02

== TH FLOW =====================================================================
 Step    545 Time=  2.66500E+01 Dt=  5.00000E-02 [y] snes_conv_reason:    3
  newton =   1 [     551] linear =   105 [     65785] cuts =  0 [   0]
  --> max chng: dpmx=   1.1983E+00 dtmpmx=   2.9419E-02

== TH FLOW =====================================================================
 Step    546 Time=  2.67000E+01 Dt=  5.00000E-02 [y] snes_conv_reason:    3
  newton =   1 [     552] linear =   118 [     65903] cuts =  0 [   0]
  --> max chng: dpmx=   1.1970E+00 dtmpmx=   2.9371E-02

== TH FLOW =====================================================================
 Step    547 Time=  2.67500E+01 Dt=  5.00000E-02 [y] snes_conv_reason:    3
  newton =   1 [     553] linear =   119 [     66022] cuts =  0 [   0]
  --> max chng: dpmx=   1.1953E+00 dtmpmx=   2.9331E-02

== TH FLOW =====================================================================
 Step    548 Time=  2.68000E+01 Dt=  5.00000E-02 [y] snes_conv_reason:    3
  newton =   1 [     554] linear =   118 [     66140] cuts =  0 [   0]
  --> max chng: dpmx=   1.1937E+00 dtmpmx=   2.9316E-02

== TH FLOW =====================================================================
 Step    549 Time=  2.68500E+01 Dt=  5.00000E-02 [y] snes_conv_reason:    3
  newton =   1 [     555] linear =   122 [     66262] cuts =  0 [   0]
  --> max chng: dpmx=   1.1920E+00 dtmpmx=   2.9294E-02

== TH FLOW =====================================================================
 Step    550 Time=  2.69000E+01 Dt=  5.00000E-02 [y] snes_conv_reason:    3
  newton =   1 [     556] linear =   119 [     66381] cuts =  0 [   0]
  --> max chng: dpmx=   1.1903E+00 dtmpmx=   2.9264E-02

== TH FLOW =====================================================================
 Step    551 Time=  2.69500E+01 Dt=  5.00000E-02 [y] snes_conv_reason:    3
  newton =   1 [     557] linear =   119 [     66500] cuts =  0 [   0]
  --> max chng: dpmx=   1.1887E+00 dtmpmx=   2.9226E-02

== TH FLOW =====================================================================
 Step    552 Time=  2.70000E+01 Dt=  5.00000E-02 [y] snes_conv_reason:    3
  newton =   1 [     558] linear =   119 [     66619] cuts =  0 [   0]
  --> max chng: dpmx=   1.1871E+00 dtmpmx=   2.9182E-02

== TH FLOW =====================================================================
 Step    553 Time=  2.70500E+01 Dt=  5.00000E-02 [y] snes_conv_reason:    3
  newton =   1 [     559] linear =   119 [     66738] cuts =  0 [   0]
  --> max chng: dpmx=   1.1854E+00 dtmpmx=   2.9132E-02

== TH FLOW =====================================================================
 Step    554 Time=  2.71000E+01 Dt=  5.00000E-02 [y] snes_conv_reason:    3
  newton =   1 [     560] linear =   117 [     66855] cuts =  0 [   0]
  --> max chng: dpmx=   1.1835E+00 dtmpmx=   2.9119E-02

== TH FLOW =====================================================================
 Step    555 Time=  2.71500E+01 Dt=  5.00000E-02 [y] snes_conv_reason:    3
  newton =   1 [     561] linear =   119 [     66974] cuts =  0 [   0]
  --> max chng: dpmx=   1.1823E+00 dtmpmx=   2.9099E-02

== TH FLOW =====================================================================
 Step    556 Time=  2.72000E+01 Dt=  5.00000E-02 [y] snes_conv_reason:    3
  newton =   1 [     562] linear =   119 [     67093] cuts =  0 [   0]
  --> max chng: dpmx=   1.1805E+00 dtmpmx=   2.9072E-02

== TH FLOW =====================================================================
 Step    557 Time=  2.72500E+01 Dt=  5.00000E-02 [y] snes_conv_reason:    3
  newton =   1 [     563] linear =   119 [     67212] cuts =  0 [   0]
  --> max chng: dpmx=   1.1787E+00 dtmpmx=   2.9037E-02

== TH FLOW =====================================================================
 Step    558 Time=  2.73000E+01 Dt=  5.00000E-02 [y] snes_conv_reason:    3
  newton =   1 [     564] linear =   119 [     67331] cuts =  0 [   0]
  --> max chng: dpmx=   1.1772E+00 dtmpmx=   2.8995E-02

== TH FLOW =====================================================================
 Step    559 Time=  2.73500E+01 Dt=  5.00000E-02 [y] snes_conv_reason:    3
  newton =   1 [     565] linear =   119 [     67450] cuts =  0 [   0]
  --> max chng: dpmx=   1.1755E+00 dtmpmx=   2.8945E-02

== TH FLOW =====================================================================
 Step    560 Time=  2.74000E+01 Dt=  5.00000E-02 [y] snes_conv_reason:    3
  newton =   1 [     566] linear =   119 [     67569] cuts =  0 [   0]
  --> max chng: dpmx=   1.1739E+00 dtmpmx=   2.8925E-02

== TH FLOW =====================================================================
 Step    561 Time=  2.74500E+01 Dt=  5.00000E-02 [y] snes_conv_reason:    3
  newton =   1 [     567] linear =   119 [     67688] cuts =  0 [   0]
  --> max chng: dpmx=   1.1722E+00 dtmpmx=   2.8907E-02

== TH FLOW =====================================================================
 Step    562 Time=  2.75000E+01 Dt=  5.00000E-02 [y] snes_conv_reason:    3
  newton =   1 [     568] linear =   117 [     67805] cuts =  0 [   0]
  --> max chng: dpmx=   1.1702E+00 dtmpmx=   2.8882E-02

 Wall Clock Time:  1.7733E+02 [sec]   2.9555E+00 [min]   4.9259E-02 [hr]
