
===================
  PFLOTRAN v3.0.1
===================

 Extent of Gridded Domain
  X: 2.5000000000000000 - 97.500000000000000
  Y: 2.5000000000000000 - 1277.5000000000000
  Z: 2.5000000000000000 - 2.5000000000000000


=+=+=+=+=+=+=+=+=+=+=+=+=+=+=+=+=+=+=+=+=+=+=+=+=+=+=+=+=+=+=+=+=+=+=+=+=+=+=+=+

  Initial Condition

--------------------------------------------------------------------------------
          Flow Condition:   initial
                  Region:   all
--------------------------------------------------------------------------------

  Flow Condition: initial
    Synchronize time with update: no
    Time units: yr
    Length units: m
      Datum:
        Dataset: Unnamed Ascii Dataset
          Type: dataset_ascii_type
          Transient: no
          Array Rank:  3

    Sub Condition: pressure
      Type: hydrostatic
      Gradient:
        Dataset: Unnamed Ascii Dataset
          Type: dataset_ascii_type
          Transient: no
          Array Rank:  3
      Data:
        Dataset: Unnamed Ascii Dataset
          Type: dataset_ascii_type
          Transient: no
          Array Rank:  1

    Sub Condition: temperature
      Type: dirichlet
      Gradient:
      Data:
        Dataset: Unnamed Ascii Dataset
          Type: dataset_ascii_type
          Transient: no
          Array Rank:  1

--------------------------------------------------------------------------------

=+=+=+=+=+=+=+=+=+=+=+=+=+=+=+=+=+=+=+=+=+=+=+=+=+=+=+=+=+=+=+=+=+=+=+=+=+=+=+=+

  Boundary Condition

--------------------------------------------------------------------------------
          Flow Condition:   initial
                  Region:   north
--------------------------------------------------------------------------------

  Flow Condition: initial
    Synchronize time with update: no
    Time units: yr
    Length units: m
      Datum:
        Dataset: Unnamed Ascii Dataset
          Type: dataset_ascii_type
          Transient: no
          Array Rank:  3

    Sub Condition: pressure
      Type: hydrostatic
      Gradient:
        Dataset: Unnamed Ascii Dataset
          Type: dataset_ascii_type
          Transient: no
          Array Rank:  3
      Data:
        Dataset: Unnamed Ascii Dataset
          Type: dataset_ascii_type
          Transient: no
          Array Rank:  1

    Sub Condition: temperature
      Type: dirichlet
      Gradient:
      Data:
        Dataset: Unnamed Ascii Dataset
          Type: dataset_ascii_type
          Transient: no
          Array Rank:  1

--------------------------------------------------------------------------------

=+=+=+=+=+=+=+=+=+=+=+=+=+=+=+=+=+=+=+=+=+=+=+=+=+=+=+=+=+=+=+=+=+=+=+=+=+=+=+=+

  Boundary Condition

--------------------------------------------------------------------------------
          Flow Condition:   initial
                  Region:   south
--------------------------------------------------------------------------------

  Flow Condition: initial
    Synchronize time with update: no
    Time units: yr
    Length units: m
      Datum:
        Dataset: Unnamed Ascii Dataset
          Type: dataset_ascii_type
          Transient: no
          Array Rank:  3

    Sub Condition: pressure
      Type: hydrostatic
      Gradient:
        Dataset: Unnamed Ascii Dataset
          Type: dataset_ascii_type
          Transient: no
          Array Rank:  3
      Data:
        Dataset: Unnamed Ascii Dataset
          Type: dataset_ascii_type
          Transient: no
          Array Rank:  1

    Sub Condition: temperature
      Type: dirichlet
      Gradient:
      Data:
        Dataset: Unnamed Ascii Dataset
          Type: dataset_ascii_type
          Transient: no
          Array Rank:  1

--------------------------------------------------------------------------------

=+=+=+=+=+=+=+=+=+=+=+=+=+=+=+=+=+=+=+=+=+=+=+=+=+=+=+=+=+=+=+=+=+=+=+=+=+=+=+=+

  Source Sink

--------------------------------------------------------------------------------
          Flow Condition:   injection
                  Region:   heatpump_inject0
--------------------------------------------------------------------------------

  Flow Condition: injection
    Synchronize time with update: no
    Time units: yr
    Length units: m
      Datum:

    Sub Condition: rate
      Type: scaled volumetric rate
      Gradient:
      Data:
        Dataset: Unnamed Ascii Dataset
          Type: dataset_ascii_type
          Is transient?: yes
          Number of times:      3
          Is cyclic?: no
          Buffer:
            Rank:  2
            Dims:    1   3
            Buffer Slice Size:   0
          Array Rank:  1

    Sub Condition: temperature
      Type: dirichlet
      Gradient:
      Data:
        Dataset: Unnamed Ascii Dataset
          Type: dataset_ascii_type
          Transient: no
          Array Rank:  1

--------------------------------------------------------------------------------

 Requested processors =    16

FLOW Time Stepper
                 acceleration: on
       acceleration threshold: 5
       number of ramp entries: 5
                ramp entry #1: 2.0000
                ramp entry #2: 2.0000
                ramp entry #3: 2.0000
                ramp entry #4: 2.0000
                ramp entry #5: 2.0000
                ramp entry #6: 1.8000
                ramp entry #7: 1.6000
                ramp entry #8: 1.4000
                ramp entry #9: 1.2000
               ramp entry #10: 1.0000
               ramp entry #11: 1.0000
               ramp entry #12: 1.0000
               ramp entry #13: 1.0000
      maximum number of steps: 999999
constant time steps threshold: 5
       maximum number of cuts: 16
             reduction factor: 5.000000E-01
        maximum growth factor: 2.000000E+00

FLOW Newton Solver
                         atol: 1.000000E-50
                         rtol: 1.000000E-03
                         stol: 1.000000E-08
                         dtol: 1.000000E+04
                      maxnorm: 1.000000E+20
                    inftolres: -9.990000E+02
                    inftolupd: 1.000000E+00
                 inftolrelupd: -9.990000E+02
                 inftolsclres: -9.990000E+02
                     max iter: 50
                     min iter: 1
                         maxf: 10000
                  matrix type: baij
         precond. matrix type: baij
               inexact newton: off
            print convergence: on
   print detailed convergence: off
          check infinity norm: on

FLOW Linear Solver
                       solver: bcgs
               preconditioner: bjacobi
                         atol: 1.000000E-50
                         rtol: 1.000000E-05
                         dtol: 1.000000E+04
            maximum iteration: 10000

== TH FLOW =====================================================================
 Step      1 Time=  1.00000E-05 Dt=  1.00000E-05 [y] snes_conv_reason:   11
  newton =   1 [       1] linear =    65 [        65] cuts =  0 [   0]
  --> max chng: dpmx=   3.3608E-02 dtmpmx=   8.9308E-09

== TH FLOW =====================================================================
 Step      2 Time=  3.00000E-05 Dt=  2.00000E-05 [y] snes_conv_reason:   11
  newton =   1 [       2] linear =    81 [       146] cuts =  0 [   0]
  --> max chng: dpmx=   3.5063E-03 dtmpmx=   1.7782E-08

== TH FLOW =====================================================================
 Step      3 Time=  7.00000E-05 Dt=  4.00000E-05 [y] snes_conv_reason:   11
  newton =   1 [       3] linear =   100 [       246] cuts =  0 [   0]
  --> max chng: dpmx=   1.8276E-04 dtmpmx=   3.5556E-08

== TH FLOW =====================================================================
 Step      4 Time=  1.50000E-04 Dt=  8.00000E-05 [y] snes_conv_reason:   11
  newton =   1 [       4] linear =   105 [       351] cuts =  0 [   0]
  --> max chng: dpmx=   4.7319E-06 dtmpmx=   7.1111E-08

== TH FLOW =====================================================================
 Step      5 Time=  3.10000E-04 Dt=  1.60000E-04 [y] snes_conv_reason:   11
  newton =   1 [       5] linear =   107 [       458] cuts =  0 [   0]
  --> max chng: dpmx=   3.1595E-07 dtmpmx=   1.4222E-07

== TH FLOW =====================================================================
 Step      6 Time=  6.30000E-04 Dt=  3.20000E-04 [y] snes_conv_reason:   11
  newton =   1 [       6] linear =   118 [       576] cuts =  0 [   0]
  --> max chng: dpmx=   6.4482E-07 dtmpmx=   2.8444E-07

== TH FLOW =====================================================================
 Step      7 Time=  1.27000E-03 Dt=  6.40000E-04 [y] snes_conv_reason:   11
  newton =   1 [       7] linear =   117 [       693] cuts =  0 [   0]
  --> max chng: dpmx=   1.3275E-06 dtmpmx=   5.6889E-07

== TH FLOW =====================================================================
 Step      8 Time=  2.55000E-03 Dt=  1.28000E-03 [y] snes_conv_reason:   11
  newton =   1 [       8] linear =   118 [       811] cuts =  0 [   0]
  --> max chng: dpmx=   2.7972E-06 dtmpmx=   1.1378E-06

== TH FLOW =====================================================================
 Step      9 Time=  5.11000E-03 Dt=  2.56000E-03 [y] snes_conv_reason:   11
  newton =   1 [       9] linear =   108 [       919] cuts =  0 [   0]
  --> max chng: dpmx=   6.1919E-06 dtmpmx=   2.2756E-06

== TH FLOW =====================================================================
 Step     10 Time=  1.02300E-02 Dt=  5.12000E-03 [y] snes_conv_reason:   11
  newton =   1 [      10] linear =   120 [      1039] cuts =  0 [   0]
  --> max chng: dpmx=   1.4731E-05 dtmpmx=   4.5511E-06

== TH FLOW =====================================================================
 Step     11 Time=  2.04700E-02 Dt=  1.02400E-02 [y] snes_conv_reason:   11
  newton =   1 [      11] linear =   118 [      1157] cuts =  0 [   0]
  --> max chng: dpmx=   3.8798E-05 dtmpmx=   9.1022E-06

== TH FLOW =====================================================================
 Step     12 Time=  4.09500E-02 Dt=  2.04800E-02 [y] snes_conv_reason:   11
  newton =   1 [      12] linear =   115 [      1272] cuts =  0 [   0]
  --> max chng: dpmx=   1.1432E-04 dtmpmx=   1.8204E-05

== TH FLOW =====================================================================
 Step     13 Time=  8.19100E-02 Dt=  4.09600E-02 [y] snes_conv_reason:   11
  newton =   1 [      13] linear =   120 [      1392] cuts =  0 [   0]
  --> max chng: dpmx=   3.7051E-04 dtmpmx=   3.6409E-05

== TH FLOW =====================================================================
 Step     14 Time=  1.00000E-01 Dt=  1.80900E-02 [y] snes_conv_reason:   11
  newton =   1 [      14] linear =   122 [      1514] cuts =  0 [   0]
  --> max chng: dpmx=   1.9181E-04 dtmpmx=   1.6080E-05

== TH FLOW =====================================================================
 Step     15 Time=  1.50000E-01 Dt=  5.00000E-02 [y] snes_conv_reason:   11
  newton =   1 [      15] linear =   120 [      1634] cuts =  0 [   0]
  --> max chng: dpmx=   7.3434E-04 dtmpmx=   4.4445E-05

== TH FLOW =====================================================================
 Step     16 Time=  2.00000E-01 Dt=  5.00000E-02 [y] snes_conv_reason:   11
  newton =   1 [      16] linear =   117 [      1751] cuts =  0 [   0]
  --> max chng: dpmx=   9.3410E-04 dtmpmx=   4.4445E-05

== TH FLOW =====================================================================
 Step     17 Time=  2.50000E-01 Dt=  5.00000E-02 [y] snes_conv_reason:   11
  newton =   3 [      19] linear =   346 [      2097] cuts =  0 [   0]
  --> max chng: dpmx=   1.2130E+02 dtmpmx=   2.3188E+00

== TH FLOW =====================================================================
 Step     18 Time=  3.00000E-01 Dt=  5.00000E-02 [y] snes_conv_reason:   11
  newton =   2 [      21] linear =   236 [      2333] cuts =  0 [   0]
  --> max chng: dpmx=   1.3222E+00 dtmpmx=   8.9585E-01

== TH FLOW =====================================================================
 Step     19 Time=  3.50000E-01 Dt=  5.00000E-02 [y] snes_conv_reason:   11
  newton =   2 [      23] linear =   245 [      2578] cuts =  0 [   0]
  --> max chng: dpmx=   1.2199E+00 dtmpmx=   6.5219E-01

== TH FLOW =====================================================================
 Step     20 Time=  4.00000E-01 Dt=  5.00000E-02 [y] snes_conv_reason:   11
  newton =   2 [      25] linear =   239 [      2817] cuts =  0 [   0]
  --> max chng: dpmx=   1.1614E+00 dtmpmx=   5.2842E-01

== TH FLOW =====================================================================
 Step     21 Time=  4.50000E-01 Dt=  5.00000E-02 [y] snes_conv_reason:   11
  newton =   2 [      27] linear =   239 [      3056] cuts =  0 [   0]
  --> max chng: dpmx=   1.1203E+00 dtmpmx=   4.5570E-01

== TH FLOW =====================================================================
 Step     22 Time=  5.00000E-01 Dt=  5.00000E-02 [y] snes_conv_reason:   11
  newton =   2 [      29] linear =   238 [      3294] cuts =  0 [   0]
  --> max chng: dpmx=   1.0876E+00 dtmpmx=   4.0237E-01

== TH FLOW =====================================================================
 Step     23 Time=  5.50000E-01 Dt=  5.00000E-02 [y] snes_conv_reason:   11
  newton =   2 [      31] linear =   244 [      3538] cuts =  0 [   0]
  --> max chng: dpmx=   1.0597E+00 dtmpmx=   3.6414E-01

== TH FLOW =====================================================================
 Step     24 Time=  6.00000E-01 Dt=  5.00000E-02 [y] snes_conv_reason:   11
  newton =   2 [      33] linear =   242 [      3780] cuts =  0 [   0]
  --> max chng: dpmx=   1.0350E+00 dtmpmx=   3.3294E-01

== TH FLOW =====================================================================
 Step     25 Time=  6.50000E-01 Dt=  5.00000E-02 [y] snes_conv_reason:    3
  newton =   1 [      34] linear =   118 [      3898] cuts =  0 [   0]
  --> max chng: dpmx=   1.0119E+00 dtmpmx=   3.0805E-01

== TH FLOW =====================================================================
 Step     26 Time=  7.00000E-01 Dt=  5.00000E-02 [y] snes_conv_reason:   11
  newton =   1 [      35] linear =   113 [      4011] cuts =  0 [   0]
  --> max chng: dpmx=   9.9004E-01 dtmpmx=   2.8713E-01

== TH FLOW =====================================================================
 Step     27 Time=  7.50000E-01 Dt=  5.00000E-02 [y] snes_conv_reason:   11
  newton =   1 [      36] linear =   118 [      4129] cuts =  0 [   0]
  --> max chng: dpmx=   9.6991E-01 dtmpmx=   2.6897E-01

== TH FLOW =====================================================================
 Step     28 Time=  8.00000E-01 Dt=  5.00000E-02 [y] snes_conv_reason:   11
  newton =   1 [      37] linear =   119 [      4248] cuts =  0 [   0]
  --> max chng: dpmx=   9.5030E-01 dtmpmx=   2.5366E-01

== TH FLOW =====================================================================
 Step     29 Time=  8.50000E-01 Dt=  5.00000E-02 [y] snes_conv_reason:   11
  newton =   1 [      38] linear =   119 [      4367] cuts =  0 [   0]
  --> max chng: dpmx=   9.3076E-01 dtmpmx=   2.3969E-01

== TH FLOW =====================================================================
 Step     30 Time=  9.00000E-01 Dt=  5.00000E-02 [y] snes_conv_reason:   11
  newton =   1 [      39] linear =   117 [      4484] cuts =  0 [   0]
  --> max chng: dpmx=   9.1230E-01 dtmpmx=   2.2782E-01

== TH FLOW =====================================================================
 Step     31 Time=  9.50000E-01 Dt=  5.00000E-02 [y] snes_conv_reason:   11
  newton =   1 [      40] linear =   118 [      4602] cuts =  0 [   0]
  --> max chng: dpmx=   8.9412E-01 dtmpmx=   2.1684E-01

== TH FLOW =====================================================================
 Step     32 Time=  1.00000E+00 Dt=  5.00000E-02 [y] snes_conv_reason:   11
  newton =   1 [      41] linear =   121 [      4723] cuts =  0 [   0]
  --> max chng: dpmx=   8.7602E-01 dtmpmx=   2.0707E-01

== TH FLOW =====================================================================
 Step     33 Time=  1.05000E+00 Dt=  5.00000E-02 [y] snes_conv_reason:   11
  newton =   1 [      42] linear =   109 [      4832] cuts =  0 [   0]
  --> max chng: dpmx=   8.5852E-01 dtmpmx=   1.9819E-01

== TH FLOW =====================================================================
 Step     34 Time=  1.10000E+00 Dt=  5.00000E-02 [y] snes_conv_reason:   11
  newton =   1 [      43] linear =   114 [      4946] cuts =  0 [   0]
  --> max chng: dpmx=   8.4139E-01 dtmpmx=   1.8995E-01

== TH FLOW =====================================================================
 Step     35 Time=  1.15000E+00 Dt=  5.00000E-02 [y] snes_conv_reason:   11
  newton =   1 [      44] linear =   112 [      5058] cuts =  0 [   0]
  --> max chng: dpmx=   8.2393E-01 dtmpmx=   1.8260E-01

== TH FLOW =====================================================================
 Step     36 Time=  1.20000E+00 Dt=  5.00000E-02 [y] snes_conv_reason:   11
  newton =   1 [      45] linear =   115 [      5173] cuts =  0 [   0]
  --> max chng: dpmx=   8.0748E-01 dtmpmx=   1.7560E-01

== TH FLOW =====================================================================
 Step     37 Time=  1.25000E+00 Dt=  5.00000E-02 [y] snes_conv_reason:   11
  newton =   1 [      46] linear =   112 [      5285] cuts =  0 [   0]
  --> max chng: dpmx=   7.9017E-01 dtmpmx=   1.6933E-01

== TH FLOW =====================================================================
 Step     38 Time=  1.30000E+00 Dt=  5.00000E-02 [y] snes_conv_reason:   11
  newton =   1 [      47] linear =   115 [      5400] cuts =  0 [   0]
  --> max chng: dpmx=   7.7400E-01 dtmpmx=   1.6339E-01

== TH FLOW =====================================================================
 Step     39 Time=  1.35000E+00 Dt=  5.00000E-02 [y] snes_conv_reason:   11
  newton =   1 [      48] linear =   111 [      5511] cuts =  0 [   0]
  --> max chng: dpmx=   7.5724E-01 dtmpmx=   1.5787E-01

== TH FLOW =====================================================================
 Step     40 Time=  1.40000E+00 Dt=  5.00000E-02 [y] snes_conv_reason:   11
  newton =   1 [      49] linear =   120 [      5631] cuts =  0 [   0]
  --> max chng: dpmx=   7.4113E-01 dtmpmx=   1.5276E-01

== TH FLOW =====================================================================
 Step     41 Time=  1.45000E+00 Dt=  5.00000E-02 [y] snes_conv_reason:   11
  newton =   1 [      50] linear =   117 [      5748] cuts =  0 [   0]
  --> max chng: dpmx=   7.2510E-01 dtmpmx=   1.4786E-01

== TH FLOW =====================================================================
 Step     42 Time=  1.50000E+00 Dt=  5.00000E-02 [y] snes_conv_reason:   11
  newton =   1 [      51] linear =   113 [      5861] cuts =  0 [   0]
  --> max chng: dpmx=   7.0871E-01 dtmpmx=   1.4342E-01

== TH FLOW =====================================================================
 Step     43 Time=  1.55000E+00 Dt=  5.00000E-02 [y] snes_conv_reason:   11
  newton =   1 [      52] linear =   116 [      5977] cuts =  0 [   0]
  --> max chng: dpmx=   6.9301E-01 dtmpmx=   1.3911E-01

== TH FLOW =====================================================================
 Step     44 Time=  1.60000E+00 Dt=  5.00000E-02 [y] snes_conv_reason:   11
  newton =   1 [      53] linear =   114 [      6091] cuts =  0 [   0]
  --> max chng: dpmx=   6.7684E-01 dtmpmx=   1.3514E-01

== TH FLOW =====================================================================
 Step     45 Time=  1.65000E+00 Dt=  5.00000E-02 [y] snes_conv_reason:   11
  newton =   1 [      54] linear =   117 [      6208] cuts =  0 [   0]
  --> max chng: dpmx=   6.6128E-01 dtmpmx=   1.3135E-01

== TH FLOW =====================================================================
 Step     46 Time=  1.70000E+00 Dt=  5.00000E-02 [y] snes_conv_reason:   11
  newton =   1 [      55] linear =   122 [      6330] cuts =  0 [   0]
  --> max chng: dpmx=   6.4559E-01 dtmpmx=   1.2774E-01

== TH FLOW =====================================================================
 Step     47 Time=  1.75000E+00 Dt=  5.00000E-02 [y] snes_conv_reason:   11
  newton =   1 [      56] linear =   117 [      6447] cuts =  0 [   0]
  --> max chng: dpmx=   6.2988E-01 dtmpmx=   1.2438E-01

== TH FLOW =====================================================================
 Step     48 Time=  1.80000E+00 Dt=  5.00000E-02 [y] snes_conv_reason:   11
  newton =   1 [      57] linear =   109 [      6556] cuts =  0 [   0]
  --> max chng: dpmx=   6.1458E-01 dtmpmx=   1.2109E-01

== TH FLOW =====================================================================
 Step     49 Time=  1.85000E+00 Dt=  5.00000E-02 [y] snes_conv_reason:   11
  newton =   1 [      58] linear =   112 [      6668] cuts =  0 [   0]
  --> max chng: dpmx=   5.9922E-01 dtmpmx=   1.1809E-01

== TH FLOW =====================================================================
 Step     50 Time=  1.90000E+00 Dt=  5.00000E-02 [y] snes_conv_reason:   11
  newton =   1 [      59] linear =   118 [      6786] cuts =  0 [   0]
  --> max chng: dpmx=   5.8310E-01 dtmpmx=   1.1515E-01

== TH FLOW =====================================================================
 Step     51 Time=  1.95000E+00 Dt=  5.00000E-02 [y] snes_conv_reason:   11
  newton =   1 [      60] linear =   114 [      6900] cuts =  0 [   0]
  --> max chng: dpmx=   5.6840E-01 dtmpmx=   1.1238E-01

== TH FLOW =====================================================================
 Step     52 Time=  2.00000E+00 Dt=  5.00000E-02 [y] snes_conv_reason:   11
  newton =   1 [      61] linear =   115 [      7015] cuts =  0 [   0]
  --> max chng: dpmx=   5.5322E-01 dtmpmx=   1.0974E-01

== TH FLOW =====================================================================
 Step     53 Time=  2.05000E+00 Dt=  5.00000E-02 [y] snes_conv_reason:   11
  newton =   1 [      62] linear =   108 [      7123] cuts =  0 [   0]
  --> max chng: dpmx=   5.3759E-01 dtmpmx=   1.0717E-01

== TH FLOW =====================================================================
 Step     54 Time=  2.10000E+00 Dt=  5.00000E-02 [y] snes_conv_reason:   11
  newton =   1 [      63] linear =   113 [      7236] cuts =  0 [   0]
  --> max chng: dpmx=   5.2259E-01 dtmpmx=   1.0479E-01

== TH FLOW =====================================================================
 Step     55 Time=  2.15000E+00 Dt=  5.00000E-02 [y] snes_conv_reason:   11
  newton =   1 [      64] linear =   114 [      7350] cuts =  0 [   0]
  --> max chng: dpmx=   5.0762E-01 dtmpmx=   1.0245E-01

== TH FLOW =====================================================================
 Step     56 Time=  2.20000E+00 Dt=  5.00000E-02 [y] snes_conv_reason:   11
  newton =   1 [      65] linear =   113 [      7463] cuts =  0 [   0]
  --> max chng: dpmx=   4.9245E-01 dtmpmx=   1.0026E-01

== TH FLOW =====================================================================
 Step     57 Time=  2.25000E+00 Dt=  5.00000E-02 [y] snes_conv_reason:   11
  newton =   1 [      66] linear =   113 [      7576] cuts =  0 [   0]
  --> max chng: dpmx=   4.8213E-01 dtmpmx=   9.8125E-02

== TH FLOW =====================================================================
 Step     58 Time=  2.30000E+00 Dt=  5.00000E-02 [y] snes_conv_reason:   11
  newton =   1 [      67] linear =   115 [      7691] cuts =  0 [   0]
  --> max chng: dpmx=   4.9254E-01 dtmpmx=   9.6078E-02

== TH FLOW =====================================================================
 Step     59 Time=  2.35000E+00 Dt=  5.00000E-02 [y] snes_conv_reason:   11
  newton =   1 [      68] linear =   109 [      7800] cuts =  0 [   0]
  --> max chng: dpmx=   5.0305E-01 dtmpmx=   9.4137E-02

== TH FLOW =====================================================================
 Step     60 Time=  2.40000E+00 Dt=  5.00000E-02 [y] snes_conv_reason:   11
  newton =   1 [      69] linear =   114 [      7914] cuts =  0 [   0]
  --> max chng: dpmx=   5.1345E-01 dtmpmx=   9.2219E-02

== TH FLOW =====================================================================
 Step     61 Time=  2.45000E+00 Dt=  5.00000E-02 [y] snes_conv_reason:   11
  newton =   1 [      70] linear =   116 [      8030] cuts =  0 [   0]
  --> max chng: dpmx=   5.2393E-01 dtmpmx=   9.0446E-02

== TH FLOW =====================================================================
 Step     62 Time=  2.50000E+00 Dt=  5.00000E-02 [y] snes_conv_reason:   11
  newton =   1 [      71] linear =   116 [      8146] cuts =  0 [   0]
  --> max chng: dpmx=   5.3457E-01 dtmpmx=   8.8689E-02

== TH FLOW =====================================================================
 Step     63 Time=  2.55000E+00 Dt=  5.00000E-02 [y] snes_conv_reason:   11
  newton =   1 [      72] linear =   119 [      8265] cuts =  0 [   0]
  --> max chng: dpmx=   5.4520E-01 dtmpmx=   8.7020E-02

== TH FLOW =====================================================================
 Step     64 Time=  2.60000E+00 Dt=  5.00000E-02 [y] snes_conv_reason:   11
  newton =   1 [      73] linear =   115 [      8380] cuts =  0 [   0]
  --> max chng: dpmx=   5.5577E-01 dtmpmx=   8.5408E-02

== TH FLOW =====================================================================
 Step     65 Time=  2.65000E+00 Dt=  5.00000E-02 [y] snes_conv_reason:   11
  newton =   1 [      74] linear =   114 [      8494] cuts =  0 [   0]
  --> max chng: dpmx=   5.6665E-01 dtmpmx=   8.3833E-02

== TH FLOW =====================================================================
 Step     66 Time=  2.70000E+00 Dt=  5.00000E-02 [y] snes_conv_reason:   11
  newton =   1 [      75] linear =   114 [      8608] cuts =  0 [   0]
  --> max chng: dpmx=   5.7721E-01 dtmpmx=   8.2350E-02

== TH FLOW =====================================================================
 Step     67 Time=  2.75000E+00 Dt=  5.00000E-02 [y] snes_conv_reason:   11
  newton =   1 [      76] linear =   114 [      8722] cuts =  0 [   0]
  --> max chng: dpmx=   5.8797E-01 dtmpmx=   8.0876E-02

== TH FLOW =====================================================================
 Step     68 Time=  2.80000E+00 Dt=  5.00000E-02 [y] snes_conv_reason:   11
  newton =   1 [      77] linear =   114 [      8836] cuts =  0 [   0]
  --> max chng: dpmx=   5.9877E-01 dtmpmx=   7.9493E-02

== TH FLOW =====================================================================
 Step     69 Time=  2.85000E+00 Dt=  5.00000E-02 [y] snes_conv_reason:   11
  newton =   1 [      78] linear =   112 [      8948] cuts =  0 [   0]
  --> max chng: dpmx=   6.0974E-01 dtmpmx=   7.8132E-02

== TH FLOW =====================================================================
 Step     70 Time=  2.90000E+00 Dt=  5.00000E-02 [y] snes_conv_reason:   11
  newton =   1 [      79] linear =   111 [      9059] cuts =  0 [   0]
  --> max chng: dpmx=   6.2043E-01 dtmpmx=   7.6819E-02

== TH FLOW =====================================================================
 Step     71 Time=  2.95000E+00 Dt=  5.00000E-02 [y] snes_conv_reason:   11
  newton =   1 [      80] linear =   115 [      9174] cuts =  0 [   0]
  --> max chng: dpmx=   6.3147E-01 dtmpmx=   7.5560E-02

== TH FLOW =====================================================================
 Step     72 Time=  3.00000E+00 Dt=  5.00000E-02 [y] snes_conv_reason:   11
  newton =   1 [      81] linear =   113 [      9287] cuts =  0 [   0]
  --> max chng: dpmx=   6.4211E-01 dtmpmx=   7.4311E-02

== TH FLOW =====================================================================
 Step     73 Time=  3.05000E+00 Dt=  5.00000E-02 [y] snes_conv_reason:   11
  newton =   1 [      82] linear =   112 [      9399] cuts =  0 [   0]
  --> max chng: dpmx=   6.5313E-01 dtmpmx=   7.3144E-02

== TH FLOW =====================================================================
 Step     74 Time=  3.10000E+00 Dt=  5.00000E-02 [y] snes_conv_reason:   11
  newton =   1 [      83] linear =   111 [      9510] cuts =  0 [   0]
  --> max chng: dpmx=   6.6402E-01 dtmpmx=   7.1980E-02

== TH FLOW =====================================================================
 Step     75 Time=  3.15000E+00 Dt=  5.00000E-02 [y] snes_conv_reason:   11
  newton =   1 [      84] linear =   113 [      9623] cuts =  0 [   0]
  --> max chng: dpmx=   6.7510E-01 dtmpmx=   7.0871E-02

== TH FLOW =====================================================================
 Step     76 Time=  3.17500E+00 Dt=  2.50000E-02 [y] snes_conv_reason:   11
  newton =   1 [      85] linear =   176 [      9799] cuts =  1 [   1]
  --> max chng: dpmx=   3.4054E-01 dtmpmx=   3.5225E-02

== TH FLOW =====================================================================
 Step     77 Time=  3.20000E+00 Dt=  2.50000E-02 [y] snes_conv_reason:   11
  newton =   1 [      86] linear =   106 [      9905] cuts =  0 [   1]
  --> max chng: dpmx=   3.4332E-01 dtmpmx=   3.5012E-02

== TH FLOW =====================================================================
 Step     78 Time=  3.22500E+00 Dt=  2.50000E-02 [y] snes_conv_reason:   11
  newton =   1 [      87] linear =   110 [     10015] cuts =  0 [   1]
  --> max chng: dpmx=   3.4623E-01 dtmpmx=   3.4798E-02

== TH FLOW =====================================================================
 Step     79 Time=  3.25000E+00 Dt=  2.50000E-02 [y] snes_conv_reason:   11
  newton =   1 [      88] linear =   109 [     10124] cuts =  0 [   1]
  --> max chng: dpmx=   3.4920E-01 dtmpmx=   3.4596E-02

== TH FLOW =====================================================================
 Step     80 Time=  3.27500E+00 Dt=  2.50000E-02 [y] snes_conv_reason:   11
  newton =   1 [      89] linear =   114 [     10238] cuts =  0 [   1]
  --> max chng: dpmx=   3.5211E-01 dtmpmx=   3.4397E-02

== TH FLOW =====================================================================
 Step     81 Time=  3.30000E+00 Dt=  2.50000E-02 [y] snes_conv_reason:   11
  newton =   1 [      90] linear =   114 [     10352] cuts =  0 [   1]
  --> max chng: dpmx=   3.5502E-01 dtmpmx=   3.4196E-02

== TH FLOW =====================================================================
 Step     82 Time=  3.35000E+00 Dt=  5.00000E-02 [y] snes_conv_reason:   11
  newton =   1 [      91] linear =   109 [     10461] cuts =  0 [   1]
  --> max chng: dpmx=   7.2105E-01 dtmpmx=   6.7363E-02

== TH FLOW =====================================================================
 Step     83 Time=  3.40000E+00 Dt=  5.00000E-02 [y] snes_conv_reason:   11
  newton =   1 [      92] linear =   111 [     10572] cuts =  0 [   1]
  --> max chng: dpmx=   7.3168E-01 dtmpmx=   6.6398E-02

== TH FLOW =====================================================================
 Step     84 Time=  3.45000E+00 Dt=  5.00000E-02 [y] snes_conv_reason:   11
  newton =   1 [      93] linear =   113 [     10685] cuts =  0 [   1]
  --> max chng: dpmx=   7.4243E-01 dtmpmx=   6.5434E-02

== TH FLOW =====================================================================
 Step     85 Time=  3.50000E+00 Dt=  5.00000E-02 [y] snes_conv_reason:   11
  newton =   1 [      94] linear =   112 [     10797] cuts =  0 [   1]
  --> max chng: dpmx=   7.5318E-01 dtmpmx=   6.4512E-02

== TH FLOW =====================================================================
 Step     86 Time=  3.55000E+00 Dt=  5.00000E-02 [y] snes_conv_reason:   11
  newton =   1 [      95] linear =   112 [     10909] cuts =  0 [   1]
  --> max chng: dpmx=   7.6369E-01 dtmpmx=   6.3611E-02

== TH FLOW =====================================================================
 Step     87 Time=  3.60000E+00 Dt=  5.00000E-02 [y] snes_conv_reason:   11
  newton =   1 [      96] linear =   109 [     11018] cuts =  0 [   1]
  --> max chng: dpmx=   7.7407E-01 dtmpmx=   6.2727E-02

== TH FLOW =====================================================================
 Step     88 Time=  3.65000E+00 Dt=  5.00000E-02 [y] snes_conv_reason:   11
  newton =   1 [      97] linear =   109 [     11127] cuts =  0 [   1]
  --> max chng: dpmx=   7.8423E-01 dtmpmx=   6.1884E-02

== TH FLOW =====================================================================
 Step     89 Time=  3.70000E+00 Dt=  5.00000E-02 [y] snes_conv_reason:   11
  newton =   1 [      98] linear =   112 [     11239] cuts =  0 [   1]
  --> max chng: dpmx=   7.9401E-01 dtmpmx=   6.1040E-02

== TH FLOW =====================================================================
 Step     90 Time=  3.75000E+00 Dt=  5.00000E-02 [y] snes_conv_reason:   11
  newton =   1 [      99] linear =   104 [     11343] cuts =  0 [   1]
  --> max chng: dpmx=   8.0303E-01 dtmpmx=   6.0244E-02

== TH FLOW =====================================================================
 Step     91 Time=  3.80000E+00 Dt=  5.00000E-02 [y] snes_conv_reason:   11
  newton =   1 [     100] linear =   108 [     11451] cuts =  0 [   1]
  --> max chng: dpmx=   8.1218E-01 dtmpmx=   5.9453E-02

== TH FLOW =====================================================================
 Step     92 Time=  3.85000E+00 Dt=  5.00000E-02 [y] snes_conv_reason:   11
  newton =   1 [     101] linear =   107 [     11558] cuts =  0 [   1]
  --> max chng: dpmx=   8.2030E-01 dtmpmx=   5.8685E-02

== TH FLOW =====================================================================
 Step     93 Time=  3.90000E+00 Dt=  5.00000E-02 [y] snes_conv_reason:   11
  newton =   1 [     102] linear =   104 [     11662] cuts =  0 [   1]
  --> max chng: dpmx=   8.2771E-01 dtmpmx=   5.7942E-02

== TH FLOW =====================================================================
 Step     94 Time=  3.95000E+00 Dt=  5.00000E-02 [y] snes_conv_reason:   11
  newton =   1 [     103] linear =   112 [     11774] cuts =  0 [   1]
  --> max chng: dpmx=   8.3423E-01 dtmpmx=   5.7203E-02

== TH FLOW =====================================================================
 Step     95 Time=  4.00000E+00 Dt=  5.00000E-02 [y] snes_conv_reason:   11
  newton =   1 [     104] linear =   111 [     11885] cuts =  0 [   1]
  --> max chng: dpmx=   8.3974E-01 dtmpmx=   5.6504E-02

== TH FLOW =====================================================================
 Step     96 Time=  4.05000E+00 Dt=  5.00000E-02 [y] snes_conv_reason:   11
  newton =   1 [     105] linear =   109 [     11994] cuts =  0 [   1]
  --> max chng: dpmx=   8.4362E-01 dtmpmx=   5.5804E-02

== TH FLOW =====================================================================
 Step     97 Time=  4.10000E+00 Dt=  5.00000E-02 [y] snes_conv_reason:   11
  newton =   1 [     106] linear =   105 [     12099] cuts =  0 [   1]
  --> max chng: dpmx=   8.4657E-01 dtmpmx=   5.5133E-02

== TH FLOW =====================================================================
 Step     98 Time=  4.15000E+00 Dt=  5.00000E-02 [y] snes_conv_reason:   11
  newton =   1 [     107] linear =   110 [     12209] cuts =  0 [   1]
  --> max chng: dpmx=   8.4730E-01 dtmpmx=   5.4473E-02

== TH FLOW =====================================================================
 Step     99 Time=  4.20000E+00 Dt=  5.00000E-02 [y] snes_conv_reason:   11
  newton =   1 [     108] linear =   110 [     12319] cuts =  0 [   1]
  --> max chng: dpmx=   8.4652E-01 dtmpmx=   5.3824E-02

== TH FLOW =====================================================================
 Step    100 Time=  4.25000E+00 Dt=  5.00000E-02 [y] snes_conv_reason:   11
  newton =   1 [     109] linear =   111 [     12430] cuts =  0 [   1]
  --> max chng: dpmx=   8.4364E-01 dtmpmx=   5.3202E-02

== TH FLOW =====================================================================
 Step    101 Time=  4.30000E+00 Dt=  5.00000E-02 [y] snes_conv_reason:   11
  newton =   1 [     110] linear =   115 [     12545] cuts =  0 [   1]
  --> max chng: dpmx=   8.3850E-01 dtmpmx=   5.2578E-02

== TH FLOW =====================================================================
 Step    102 Time=  4.35000E+00 Dt=  5.00000E-02 [y] snes_conv_reason:   11
  newton =   1 [     111] linear =   112 [     12657] cuts =  0 [   1]
  --> max chng: dpmx=   8.3078E-01 dtmpmx=   5.1987E-02

== TH FLOW =====================================================================
 Step    103 Time=  4.40000E+00 Dt=  5.00000E-02 [y] snes_conv_reason:   11
  newton =   1 [     112] linear =    94 [     12751] cuts =  0 [   1]
  --> max chng: dpmx=   8.2045E-01 dtmpmx=   5.1397E-02

== TH FLOW =====================================================================
 Step    104 Time=  4.45000E+00 Dt=  5.00000E-02 [y] snes_conv_reason:   11
  newton =   1 [     113] linear =   106 [     12857] cuts =  0 [   1]
  --> max chng: dpmx=   8.0775E-01 dtmpmx=   5.0823E-02

== TH FLOW =====================================================================
 Step    105 Time=  4.50000E+00 Dt=  5.00000E-02 [y] snes_conv_reason:   11
  newton =   1 [     114] linear =   110 [     12967] cuts =  0 [   1]
  --> max chng: dpmx=   7.9203E-01 dtmpmx=   5.0265E-02

== TH FLOW =====================================================================
 Step    106 Time=  4.55000E+00 Dt=  5.00000E-02 [y] snes_conv_reason:   11
  newton =   1 [     115] linear =   106 [     13073] cuts =  0 [   1]
  --> max chng: dpmx=   7.7342E-01 dtmpmx=   4.9709E-02

== TH FLOW =====================================================================
 Step    107 Time=  4.60000E+00 Dt=  5.00000E-02 [y] snes_conv_reason:   11
  newton =   1 [     116] linear =   113 [     13186] cuts =  0 [   1]
  --> max chng: dpmx=   7.5230E-01 dtmpmx=   4.9181E-02

== TH FLOW =====================================================================
 Step    108 Time=  4.65000E+00 Dt=  5.00000E-02 [y] snes_conv_reason:   11
  newton =   1 [     117] linear =   112 [     13298] cuts =  0 [   1]
  --> max chng: dpmx=   7.2865E-01 dtmpmx=   4.8649E-02

== TH FLOW =====================================================================
 Step    109 Time=  4.70000E+00 Dt=  5.00000E-02 [y] snes_conv_reason:   11
  newton =   1 [     118] linear =   110 [     13408] cuts =  0 [   1]
  --> max chng: dpmx=   7.0216E-01 dtmpmx=   4.8140E-02

== TH FLOW =====================================================================
 Step    110 Time=  4.75000E+00 Dt=  5.00000E-02 [y] snes_conv_reason:   11
  newton =   1 [     119] linear =   114 [     13522] cuts =  0 [   1]
  --> max chng: dpmx=   6.7343E-01 dtmpmx=   4.7636E-02

== TH FLOW =====================================================================
 Step    111 Time=  4.80000E+00 Dt=  5.00000E-02 [y] snes_conv_reason:   11
  newton =   1 [     120] linear =   114 [     13636] cuts =  0 [   1]
  --> max chng: dpmx=   6.4269E-01 dtmpmx=   4.7140E-02

== TH FLOW =====================================================================
 Step    112 Time=  4.85000E+00 Dt=  5.00000E-02 [y] snes_conv_reason:   11
  newton =   1 [     121] linear =   117 [     13753] cuts =  0 [   1]
  --> max chng: dpmx=   6.1000E-01 dtmpmx=   4.6662E-02

== TH FLOW =====================================================================
 Step    113 Time=  4.90000E+00 Dt=  5.00000E-02 [y] snes_conv_reason:   11
  newton =   1 [     122] linear =   109 [     13862] cuts =  0 [   1]
  --> max chng: dpmx=   5.7602E-01 dtmpmx=   4.6180E-02

== TH FLOW =====================================================================
 Step    114 Time=  4.95000E+00 Dt=  5.00000E-02 [y] snes_conv_reason:   11
  newton =   1 [     123] linear =   112 [     13974] cuts =  0 [   1]
  --> max chng: dpmx=   5.4106E-01 dtmpmx=   4.5725E-02

== TH FLOW =====================================================================
 Step    115 Time=  5.00000E+00 Dt=  5.00000E-02 [y] snes_conv_reason:   11
  newton =   1 [     124] linear =   113 [     14087] cuts =  0 [   1]
  --> max chng: dpmx=   5.0510E-01 dtmpmx=   4.5267E-02

== TH FLOW =====================================================================
 Step    116 Time=  5.05000E+00 Dt=  5.00000E-02 [y] snes_conv_reason:   11
  newton =   1 [     125] linear =   115 [     14202] cuts =  0 [   1]
  --> max chng: dpmx=   4.6898E-01 dtmpmx=   4.4721E-02

== TH FLOW =====================================================================
 Step    117 Time=  5.10000E+00 Dt=  5.00000E-02 [y] snes_conv_reason:   11
  newton =   1 [     126] linear =   110 [     14312] cuts =  0 [   1]
  --> max chng: dpmx=   4.3307E-01 dtmpmx=   4.3812E-02

== TH FLOW =====================================================================
 Step    118 Time=  5.15000E+00 Dt=  5.00000E-02 [y] snes_conv_reason:   11
  newton =   1 [     127] linear =   114 [     14426] cuts =  0 [   1]
  --> max chng: dpmx=   3.9736E-01 dtmpmx=   4.2558E-02

== TH FLOW =====================================================================
 Step    119 Time=  5.20000E+00 Dt=  5.00000E-02 [y] snes_conv_reason:   11
  newton =   1 [     128] linear =   118 [     14544] cuts =  0 [   1]
  --> max chng: dpmx=   3.6261E-01 dtmpmx=   4.1113E-02

== TH FLOW =====================================================================
 Step    120 Time=  5.25000E+00 Dt=  5.00000E-02 [y] snes_conv_reason:   11
  newton =   1 [     129] linear =   114 [     14658] cuts =  0 [   1]
  --> max chng: dpmx=   3.2896E-01 dtmpmx=   3.9415E-02

== TH FLOW =====================================================================
 Step    121 Time=  5.30000E+00 Dt=  5.00000E-02 [y] snes_conv_reason:   11
  newton =   1 [     130] linear =   117 [     14775] cuts =  0 [   1]
  --> max chng: dpmx=   2.9648E-01 dtmpmx=   3.7481E-02

== TH FLOW =====================================================================
 Step    122 Time=  5.35000E+00 Dt=  5.00000E-02 [y] snes_conv_reason:   11
  newton =   1 [     131] linear =   118 [     14893] cuts =  0 [   1]
  --> max chng: dpmx=   2.6579E-01 dtmpmx=   3.5359E-02

== TH FLOW =====================================================================
 Step    123 Time=  5.40000E+00 Dt=  5.00000E-02 [y] snes_conv_reason:   11
  newton =   1 [     132] linear =   120 [     15013] cuts =  0 [   1]
  --> max chng: dpmx=   2.3688E-01 dtmpmx=   3.3098E-02

== TH FLOW =====================================================================
 Step    124 Time=  5.45000E+00 Dt=  5.00000E-02 [y] snes_conv_reason:   11
  newton =   1 [     133] linear =   119 [     15132] cuts =  0 [   1]
  --> max chng: dpmx=   2.0980E-01 dtmpmx=   3.0744E-02

== TH FLOW =====================================================================
 Step    125 Time=  5.50000E+00 Dt=  5.00000E-02 [y] snes_conv_reason:   11
  newton =   1 [     134] linear =   120 [     15252] cuts =  0 [   1]
  --> max chng: dpmx=   1.8473E-01 dtmpmx=   2.8344E-02

== TH FLOW =====================================================================
 Step    126 Time=  5.55000E+00 Dt=  5.00000E-02 [y] snes_conv_reason:   11
  newton =   1 [     135] linear =   119 [     15371] cuts =  0 [   1]
  --> max chng: dpmx=   1.6170E-01 dtmpmx=   2.5940E-02

== TH FLOW =====================================================================
 Step    127 Time=  5.60000E+00 Dt=  5.00000E-02 [y] snes_conv_reason:   11
  newton =   1 [     136] linear =   121 [     15492] cuts =  0 [   1]
  --> max chng: dpmx=   1.4079E-01 dtmpmx=   2.3570E-02

== TH FLOW =====================================================================
 Step    128 Time=  5.65000E+00 Dt=  5.00000E-02 [y] snes_conv_reason:   11
  newton =   1 [     137] linear =   119 [     15611] cuts =  0 [   1]
  --> max chng: dpmx=   1.2175E-01 dtmpmx=   2.1265E-02

== TH FLOW =====================================================================
 Step    129 Time=  5.70000E+00 Dt=  5.00000E-02 [y] snes_conv_reason:   11
  newton =   1 [     138] linear =   121 [     15732] cuts =  0 [   1]
  --> max chng: dpmx=   1.0477E-01 dtmpmx=   1.9053E-02

== TH FLOW =====================================================================
 Step    130 Time=  5.75000E+00 Dt=  5.00000E-02 [y] snes_conv_reason:   11
  newton =   1 [     139] linear =   118 [     15850] cuts =  0 [   1]
  --> max chng: dpmx=   8.9597E-02 dtmpmx=   1.6955E-02

== TH FLOW =====================================================================
 Step    131 Time=  5.80000E+00 Dt=  5.00000E-02 [y] snes_conv_reason:   11
  newton =   1 [     140] linear =   121 [     15971] cuts =  0 [   1]
  --> max chng: dpmx=   7.6172E-02 dtmpmx=   1.4989E-02

== TH FLOW =====================================================================
 Step    132 Time=  5.85000E+00 Dt=  5.00000E-02 [y] snes_conv_reason:   11
  newton =   1 [     141] linear =   121 [     16092] cuts =  0 [   1]
  --> max chng: dpmx=   6.4402E-02 dtmpmx=   1.3163E-02

== TH FLOW =====================================================================
 Step    133 Time=  5.90000E+00 Dt=  5.00000E-02 [y] snes_conv_reason:   11
  newton =   1 [     142] linear =   119 [     16211] cuts =  0 [   1]
  --> max chng: dpmx=   5.4146E-02 dtmpmx=   1.1486E-02

== TH FLOW =====================================================================
 Step    134 Time=  5.95000E+00 Dt=  5.00000E-02 [y] snes_conv_reason:   11
  newton =   1 [     143] linear =   122 [     16333] cuts =  0 [   1]
  --> max chng: dpmx=   4.5251E-02 dtmpmx=   9.9587E-03

== TH FLOW =====================================================================
 Step    135 Time=  6.00000E+00 Dt=  5.00000E-02 [y] snes_conv_reason:   11
  newton =   1 [     144] linear =   122 [     16455] cuts =  0 [   1]
  --> max chng: dpmx=   3.7585E-02 dtmpmx=   8.5806E-03

== TH FLOW =====================================================================
 Step    136 Time=  6.05000E+00 Dt=  5.00000E-02 [y] snes_conv_reason:   11
  newton =   1 [     145] linear =   122 [     16577] cuts =  0 [   1]
  --> max chng: dpmx=   3.1058E-02 dtmpmx=   7.3476E-03

== TH FLOW =====================================================================
 Step    137 Time=  6.10000E+00 Dt=  5.00000E-02 [y] snes_conv_reason:   11
  newton =   1 [     146] linear =   122 [     16699] cuts =  0 [   1]
  --> max chng: dpmx=   2.5506E-02 dtmpmx=   6.2533E-03

== TH FLOW =====================================================================
 Step    138 Time=  6.15000E+00 Dt=  5.00000E-02 [y] snes_conv_reason:   11
  newton =   1 [     147] linear =   122 [     16821] cuts =  0 [   1]
  --> max chng: dpmx=   2.0825E-02 dtmpmx=   5.2896E-03

== TH FLOW =====================================================================
 Step    139 Time=  6.20000E+00 Dt=  5.00000E-02 [y] snes_conv_reason:   11
  newton =   1 [     148] linear =   125 [     16946] cuts =  0 [   1]
  --> max chng: dpmx=   1.6895E-02 dtmpmx=   4.4474E-03

== TH FLOW =====================================================================
 Step    140 Time=  6.25000E+00 Dt=  5.00000E-02 [y] snes_conv_reason:   11
  newton =   1 [     149] linear =   129 [     17075] cuts =  0 [   1]
  --> max chng: dpmx=   1.3628E-02 dtmpmx=   3.7167E-03

== TH FLOW =====================================================================
 Step    141 Time=  6.30000E+00 Dt=  5.00000E-02 [y] snes_conv_reason:   11
  newton =   1 [     150] linear =   124 [     17199] cuts =  0 [   1]
  --> max chng: dpmx=   1.0917E-02 dtmpmx=   3.0872E-03

== TH FLOW =====================================================================
 Step    142 Time=  6.35000E+00 Dt=  5.00000E-02 [y] snes_conv_reason:   11
  newton =   1 [     151] linear =   120 [     17319] cuts =  0 [   1]
  --> max chng: dpmx=   8.6853E-03 dtmpmx=   2.5486E-03

== TH FLOW =====================================================================
 Step    143 Time=  6.40000E+00 Dt=  5.00000E-02 [y] snes_conv_reason:   11
  newton =   1 [     152] linear =   124 [     17443] cuts =  0 [   1]
  --> max chng: dpmx=   6.8647E-03 dtmpmx=   2.0908E-03

== TH FLOW =====================================================================
 Step    144 Time=  6.45000E+00 Dt=  5.00000E-02 [y] snes_conv_reason:   11
  newton =   1 [     153] linear =   124 [     17567] cuts =  0 [   1]
  --> max chng: dpmx=   5.3833E-03 dtmpmx=   1.7043E-03

== TH FLOW =====================================================================
 Step    145 Time=  6.50000E+00 Dt=  5.00000E-02 [y] snes_conv_reason:   11
  newton =   1 [     154] linear =   123 [     17690] cuts =  0 [   1]
  --> max chng: dpmx=   4.1870E-03 dtmpmx=   1.3801E-03

== TH FLOW =====================================================================
 Step    146 Time=  6.55000E+00 Dt=  5.00000E-02 [y] snes_conv_reason:   11
  newton =   1 [     155] linear =   123 [     17813] cuts =  0 [   1]
  --> max chng: dpmx=   3.2279E-03 dtmpmx=   1.1097E-03

== TH FLOW =====================================================================
 Step    147 Time=  6.60000E+00 Dt=  5.00000E-02 [y] snes_conv_reason:   11
  newton =   1 [     156] linear =   123 [     17936] cuts =  0 [   1]
  --> max chng: dpmx=   2.4638E-03 dtmpmx=   8.8557E-04

== TH FLOW =====================================================================
 Step    148 Time=  6.65000E+00 Dt=  5.00000E-02 [y] snes_conv_reason:   11
  newton =   1 [     157] linear =   123 [     18059] cuts =  0 [   1]
  --> max chng: dpmx=   1.8608E-03 dtmpmx=   7.0096E-04

== TH FLOW =====================================================================
 Step    149 Time=  6.70000E+00 Dt=  5.00000E-02 [y] snes_conv_reason:   11
  newton =   1 [     158] linear =   122 [     18181] cuts =  0 [   1]
  --> max chng: dpmx=   1.3867E-03 dtmpmx=   5.4976E-04

== TH FLOW =====================================================================
 Step    150 Time=  6.75000E+00 Dt=  5.00000E-02 [y] snes_conv_reason:   11
  newton =   1 [     159] linear =   122 [     18303] cuts =  0 [   1]
  --> max chng: dpmx=   1.2394E-03 dtmpmx=   4.2661E-04

== TH FLOW =====================================================================
 Step    151 Time=  6.80000E+00 Dt=  5.00000E-02 [y] snes_conv_reason:   11
  newton =   1 [     160] linear =   120 [     18423] cuts =  0 [   1]
  --> max chng: dpmx=   1.3764E-03 dtmpmx=   3.2688E-04

== TH FLOW =====================================================================
 Step    152 Time=  6.85000E+00 Dt=  5.00000E-02 [y] snes_conv_reason:   11
  newton =   1 [     161] linear =   123 [     18546] cuts =  0 [   1]
  --> max chng: dpmx=   1.4878E-03 dtmpmx=   2.4654E-04

== TH FLOW =====================================================================
 Step    153 Time=  6.90000E+00 Dt=  5.00000E-02 [y] snes_conv_reason:   11
  newton =   1 [     162] linear =   122 [     18668] cuts =  0 [   1]
  --> max chng: dpmx=   1.5754E-03 dtmpmx=   1.8216E-04

== TH FLOW =====================================================================
 Step    154 Time=  6.95000E+00 Dt=  5.00000E-02 [y] snes_conv_reason:   11
  newton =   1 [     163] linear =   121 [     18789] cuts =  0 [   1]
  --> max chng: dpmx=   1.6438E-03 dtmpmx=   1.3085E-04

== TH FLOW =====================================================================
 Step    155 Time=  7.00000E+00 Dt=  5.00000E-02 [y] snes_conv_reason:   11
  newton =   1 [     164] linear =   116 [     18905] cuts =  0 [   1]
  --> max chng: dpmx=   1.6959E-03 dtmpmx=   9.0142E-05

== TH FLOW =====================================================================
 Step    156 Time=  7.05000E+00 Dt=  5.00000E-02 [y] snes_conv_reason:   11
  newton =   1 [     165] linear =   111 [     19016] cuts =  0 [   1]
  --> max chng: dpmx=   1.7354E-03 dtmpmx=   5.9025E-05

== TH FLOW =====================================================================
 Step    157 Time=  7.10000E+00 Dt=  5.00000E-02 [y] snes_conv_reason:   11
  newton =   1 [     166] linear =   102 [     19118] cuts =  0 [   1]
  --> max chng: dpmx=   1.7638E-03 dtmpmx=   5.8937E-05

== TH FLOW =====================================================================
 Step    158 Time=  7.15000E+00 Dt=  5.00000E-02 [y] snes_conv_reason:   11
  newton =   1 [     167] linear =   110 [     19228] cuts =  0 [   1]
  --> max chng: dpmx=   1.7834E-03 dtmpmx=   5.8847E-05

== TH FLOW =====================================================================
 Step    159 Time=  7.20000E+00 Dt=  5.00000E-02 [y] snes_conv_reason:   11
  newton =   1 [     168] linear =   112 [     19340] cuts =  0 [   1]
  --> max chng: dpmx=   1.7954E-03 dtmpmx=   5.8754E-05

== TH FLOW =====================================================================
 Step    160 Time=  7.25000E+00 Dt=  5.00000E-02 [y] snes_conv_reason:   11
  newton =   1 [     169] linear =    98 [     19438] cuts =  0 [   1]
  --> max chng: dpmx=   1.8017E-03 dtmpmx=   5.8658E-05

== TH FLOW =====================================================================
 Step    161 Time=  7.30000E+00 Dt=  5.00000E-02 [y] snes_conv_reason:   11
  newton =   1 [     170] linear =   103 [     19541] cuts =  0 [   1]
  --> max chng: dpmx=   1.8038E-03 dtmpmx=   5.8562E-05

== TH FLOW =====================================================================
 Step    162 Time=  7.35000E+00 Dt=  5.00000E-02 [y] snes_conv_reason:   11
  newton =   1 [     171] linear =   106 [     19647] cuts =  0 [   1]
  --> max chng: dpmx=   1.8015E-03 dtmpmx=   5.8464E-05

== TH FLOW =====================================================================
 Step    163 Time=  7.40000E+00 Dt=  5.00000E-02 [y] snes_conv_reason:   11
  newton =   1 [     172] linear =   104 [     19751] cuts =  0 [   1]
  --> max chng: dpmx=   1.7953E-03 dtmpmx=   5.8365E-05

== TH FLOW =====================================================================
 Step    164 Time=  7.45000E+00 Dt=  5.00000E-02 [y] snes_conv_reason:   11
  newton =   1 [     173] linear =    98 [     19849] cuts =  0 [   1]
  --> max chng: dpmx=   1.7866E-03 dtmpmx=   5.8263E-05

== TH FLOW =====================================================================
 Step    165 Time=  7.50000E+00 Dt=  5.00000E-02 [y] snes_conv_reason:   11
  newton =   1 [     174] linear =    95 [     19944] cuts =  0 [   1]
  --> max chng: dpmx=   1.7756E-03 dtmpmx=   5.8159E-05

== TH FLOW =====================================================================
 Step    166 Time=  7.55000E+00 Dt=  5.00000E-02 [y] snes_conv_reason:   11
  newton =   1 [     175] linear =    94 [     20038] cuts =  0 [   1]
  --> max chng: dpmx=   1.7620E-03 dtmpmx=   5.8056E-05

== TH FLOW =====================================================================
 Step    167 Time=  7.60000E+00 Dt=  5.00000E-02 [y] snes_conv_reason:   11
  newton =   1 [     176] linear =   103 [     20141] cuts =  0 [   1]
  --> max chng: dpmx=   1.7468E-03 dtmpmx=   5.7951E-05

== TH FLOW =====================================================================
 Step    168 Time=  7.65000E+00 Dt=  5.00000E-02 [y] snes_conv_reason:   11
  newton =   1 [     177] linear =   105 [     20246] cuts =  0 [   1]
  --> max chng: dpmx=   1.7297E-03 dtmpmx=   5.7844E-05

== TH FLOW =====================================================================
 Step    169 Time=  7.70000E+00 Dt=  5.00000E-02 [y] snes_conv_reason:   11
  newton =   1 [     178] linear =   103 [     20349] cuts =  0 [   1]
  --> max chng: dpmx=   1.7108E-03 dtmpmx=   5.7736E-05

== TH FLOW =====================================================================
 Step    170 Time=  7.75000E+00 Dt=  5.00000E-02 [y] snes_conv_reason:   11
  newton =   1 [     179] linear =   102 [     20451] cuts =  0 [   1]
  --> max chng: dpmx=   1.6902E-03 dtmpmx=   5.7627E-05

== TH FLOW =====================================================================
 Step    171 Time=  7.80000E+00 Dt=  5.00000E-02 [y] snes_conv_reason:   11
  newton =   1 [     180] linear =   100 [     20551] cuts =  0 [   1]
  --> max chng: dpmx=   1.6682E-03 dtmpmx=   5.7518E-05

== TH FLOW =====================================================================
 Step    172 Time=  7.85000E+00 Dt=  5.00000E-02 [y] snes_conv_reason:   11
  newton =   1 [     181] linear =    97 [     20648] cuts =  0 [   1]
  --> max chng: dpmx=   1.6449E-03 dtmpmx=   5.7407E-05

== TH FLOW =====================================================================
 Step    173 Time=  7.90000E+00 Dt=  5.00000E-02 [y] snes_conv_reason:   11
  newton =   1 [     182] linear =    93 [     20741] cuts =  0 [   1]
  --> max chng: dpmx=   1.6202E-03 dtmpmx=   5.7295E-05

== TH FLOW =====================================================================
 Step    174 Time=  7.95000E+00 Dt=  5.00000E-02 [y] snes_conv_reason:   11
  newton =   1 [     183] linear =   107 [     20848] cuts =  0 [   1]
  --> max chng: dpmx=   1.5942E-03 dtmpmx=   5.7182E-05

== TH FLOW =====================================================================
 Step    175 Time=  8.00000E+00 Dt=  5.00000E-02 [y] snes_conv_reason:   11
  newton =   1 [     184] linear =   104 [     20952] cuts =  0 [   1]
  --> max chng: dpmx=   1.5667E-03 dtmpmx=   5.7070E-05

== TH FLOW =====================================================================
 Step    176 Time=  8.05000E+00 Dt=  5.00000E-02 [y] snes_conv_reason:   11
  newton =   1 [     185] linear =   101 [     21053] cuts =  0 [   1]
  --> max chng: dpmx=   1.5386E-03 dtmpmx=   5.6956E-05

== TH FLOW =====================================================================
 Step    177 Time=  8.10000E+00 Dt=  5.00000E-02 [y] snes_conv_reason:   11
  newton =   1 [     186] linear =   106 [     21159] cuts =  0 [   1]
  --> max chng: dpmx=   1.5086E-03 dtmpmx=   5.6841E-05

== TH FLOW =====================================================================
 Step    178 Time=  8.15000E+00 Dt=  5.00000E-02 [y] snes_conv_reason:   11
  newton =   1 [     187] linear =   104 [     21263] cuts =  0 [   1]
  --> max chng: dpmx=   1.4777E-03 dtmpmx=   5.6725E-05

== TH FLOW =====================================================================
 Step    179 Time=  8.20000E+00 Dt=  5.00000E-02 [y] snes_conv_reason:   11
  newton =   1 [     188] linear =   104 [     21367] cuts =  0 [   1]
  --> max chng: dpmx=   1.4460E-03 dtmpmx=   5.6610E-05

== TH FLOW =====================================================================
 Step    180 Time=  8.25000E+00 Dt=  5.00000E-02 [y] snes_conv_reason:   11
  newton =   1 [     189] linear =    98 [     21465] cuts =  0 [   1]
  --> max chng: dpmx=   1.4130E-03 dtmpmx=   5.6493E-05

== TH FLOW =====================================================================
 Step    181 Time=  8.30000E+00 Dt=  5.00000E-02 [y] snes_conv_reason:   11
  newton =   1 [     190] linear =   103 [     21568] cuts =  0 [   1]
  --> max chng: dpmx=   1.3788E-03 dtmpmx=   5.6376E-05

== TH FLOW =====================================================================
 Step    182 Time=  8.35000E+00 Dt=  5.00000E-02 [y] snes_conv_reason:   11
  newton =   1 [     191] linear =    90 [     21658] cuts =  0 [   1]
  --> max chng: dpmx=   1.3439E-03 dtmpmx=   5.6258E-05

== TH FLOW =====================================================================
 Step    183 Time=  8.40000E+00 Dt=  5.00000E-02 [y] snes_conv_reason:   11
  newton =   1 [     192] linear =   108 [     21766] cuts =  0 [   1]
  --> max chng: dpmx=   1.3082E-03 dtmpmx=   5.6134E-05

== TH FLOW =====================================================================
 Step    184 Time=  8.45000E+00 Dt=  5.00000E-02 [y] snes_conv_reason:   11
  newton =   1 [     193] linear =   107 [     21873] cuts =  0 [   1]
  --> max chng: dpmx=   1.2717E-03 dtmpmx=   5.5964E-05

== TH FLOW =====================================================================
 Step    185 Time=  8.50000E+00 Dt=  5.00000E-02 [y] snes_conv_reason:   11
  newton =   1 [     194] linear =    96 [     21969] cuts =  0 [   1]
  --> max chng: dpmx=   1.2346E-03 dtmpmx=   5.5732E-05

== TH FLOW =====================================================================
 Step    186 Time=  8.55000E+00 Dt=  5.00000E-02 [y] snes_conv_reason:   11
  newton =   1 [     195] linear =    86 [     22055] cuts =  0 [   1]
  --> max chng: dpmx=   1.1963E-03 dtmpmx=   5.5435E-05

== TH FLOW =====================================================================
 Step    187 Time=  8.60000E+00 Dt=  5.00000E-02 [y] snes_conv_reason:   11
  newton =   1 [     196] linear =   106 [     22161] cuts =  0 [   1]
  --> max chng: dpmx=   1.1580E-03 dtmpmx=   5.5070E-05

== TH FLOW =====================================================================
 Step    188 Time=  8.65000E+00 Dt=  5.00000E-02 [y] snes_conv_reason:   11
  newton =   1 [     197] linear =   105 [     22266] cuts =  0 [   1]
  --> max chng: dpmx=   1.1191E-03 dtmpmx=   5.4635E-05

== TH FLOW =====================================================================
 Step    189 Time=  8.70000E+00 Dt=  5.00000E-02 [y] snes_conv_reason:   11
  newton =   1 [     198] linear =   106 [     22372] cuts =  0 [   1]
  --> max chng: dpmx=   1.0794E-03 dtmpmx=   5.4126E-05

== TH FLOW =====================================================================
 Step    190 Time=  8.75000E+00 Dt=  5.00000E-02 [y] snes_conv_reason:   11
  newton =   1 [     199] linear =   104 [     22476] cuts =  0 [   1]
  --> max chng: dpmx=   1.0398E-03 dtmpmx=   5.3543E-05

== TH FLOW =====================================================================
 Step    191 Time=  8.80000E+00 Dt=  5.00000E-02 [y] snes_conv_reason:   11
  newton =   1 [     200] linear =   109 [     22585] cuts =  0 [   1]
  --> max chng: dpmx=   1.0002E-03 dtmpmx=   5.2883E-05

== TH FLOW =====================================================================
 Step    192 Time=  8.85000E+00 Dt=  5.00000E-02 [y] snes_conv_reason:   11
  newton =   1 [     201] linear =   109 [     22694] cuts =  0 [   1]
  --> max chng: dpmx=   9.5986E-04 dtmpmx=   5.2146E-05

== TH FLOW =====================================================================
 Step    193 Time=  8.90000E+00 Dt=  5.00000E-02 [y] snes_conv_reason:   11
  newton =   1 [     202] linear =   111 [     22805] cuts =  0 [   1]
  --> max chng: dpmx=   9.1986E-04 dtmpmx=   5.1331E-05

== TH FLOW =====================================================================
 Step    194 Time=  8.95000E+00 Dt=  5.00000E-02 [y] snes_conv_reason:   11
  newton =   1 [     203] linear =   114 [     22919] cuts =  0 [   1]
  --> max chng: dpmx=   8.8009E-04 dtmpmx=   5.0439E-05

== TH FLOW =====================================================================
 Step    195 Time=  9.00000E+00 Dt=  5.00000E-02 [y] snes_conv_reason:   11
  newton =   1 [     204] linear =   106 [     23025] cuts =  0 [   1]
  --> max chng: dpmx=   8.4019E-04 dtmpmx=   4.9471E-05

== TH FLOW =====================================================================
 Step    196 Time=  9.05000E+00 Dt=  5.00000E-02 [y] snes_conv_reason:   11
  newton =   1 [     205] linear =   112 [     23137] cuts =  0 [   1]
  --> max chng: dpmx=   8.0058E-04 dtmpmx=   4.8427E-05

== TH FLOW =====================================================================
 Step    197 Time=  9.10000E+00 Dt=  5.00000E-02 [y] snes_conv_reason:   11
  newton =   1 [     206] linear =   111 [     23248] cuts =  0 [   1]
  --> max chng: dpmx=   7.6147E-04 dtmpmx=   4.7312E-05

== TH FLOW =====================================================================
 Step    198 Time=  9.15000E+00 Dt=  5.00000E-02 [y] snes_conv_reason:   11
  newton =   1 [     207] linear =   114 [     23362] cuts =  0 [   1]
  --> max chng: dpmx=   7.2302E-04 dtmpmx=   4.6127E-05

== TH FLOW =====================================================================
 Step    199 Time=  9.20000E+00 Dt=  5.00000E-02 [y] snes_conv_reason:   11
  newton =   1 [     208] linear =   113 [     23475] cuts =  0 [   1]
  --> max chng: dpmx=   6.8487E-04 dtmpmx=   4.4900E-05

== TH FLOW =====================================================================
 Step    200 Time=  9.25000E+00 Dt=  5.00000E-02 [y] snes_conv_reason:   11
  newton =   1 [     209] linear =   112 [     23587] cuts =  0 [   1]
  --> max chng: dpmx=   6.4746E-04 dtmpmx=   4.3626E-05

== TH FLOW =====================================================================
 Step    201 Time=  9.30000E+00 Dt=  5.00000E-02 [y] snes_conv_reason:   11
  newton =   1 [     210] linear =   113 [     23700] cuts =  0 [   1]
  --> max chng: dpmx=   6.1081E-04 dtmpmx=   4.2294E-05

== TH FLOW =====================================================================
 Step    202 Time=  9.35000E+00 Dt=  5.00000E-02 [y] snes_conv_reason:   11
  newton =   1 [     211] linear =   110 [     23810] cuts =  0 [   1]
  --> max chng: dpmx=   5.7528E-04 dtmpmx=   4.0910E-05

== TH FLOW =====================================================================
 Step    203 Time=  9.40000E+00 Dt=  5.00000E-02 [y] snes_conv_reason:   11
  newton =   1 [     212] linear =   109 [     23919] cuts =  0 [   1]
  --> max chng: dpmx=   5.4016E-04 dtmpmx=   3.9479E-05

== TH FLOW =====================================================================
 Step    204 Time=  9.45000E+00 Dt=  5.00000E-02 [y] snes_conv_reason:   11
  newton =   1 [     213] linear =   115 [     24034] cuts =  0 [   1]
  --> max chng: dpmx=   5.0625E-04 dtmpmx=   3.8007E-05

== TH FLOW =====================================================================
 Step    205 Time=  9.50000E+00 Dt=  5.00000E-02 [y] snes_conv_reason:   11
  newton =   1 [     214] linear =   115 [     24149] cuts =  0 [   1]
  --> max chng: dpmx=   4.7347E-04 dtmpmx=   3.6501E-05

== TH FLOW =====================================================================
 Step    206 Time=  9.55000E+00 Dt=  5.00000E-02 [y] snes_conv_reason:   11
  newton =   1 [     215] linear =   114 [     24263] cuts =  0 [   1]
  --> max chng: dpmx=   4.4184E-04 dtmpmx=   3.4969E-05

== TH FLOW =====================================================================
 Step    207 Time=  9.60000E+00 Dt=  5.00000E-02 [y] snes_conv_reason:   11
  newton =   1 [     216] linear =   118 [     24381] cuts =  0 [   1]
  --> max chng: dpmx=   4.1133E-04 dtmpmx=   3.3416E-05

== TH FLOW =====================================================================
 Step    208 Time=  9.65000E+00 Dt=  5.00000E-02 [y] snes_conv_reason:   11
  newton =   1 [     217] linear =   117 [     24498] cuts =  0 [   1]
  --> max chng: dpmx=   3.8195E-04 dtmpmx=   3.1850E-05

== TH FLOW =====================================================================
 Step    209 Time=  9.70000E+00 Dt=  5.00000E-02 [y] snes_conv_reason:   11
  newton =   1 [     218] linear =   115 [     24613] cuts =  0 [   1]
  --> max chng: dpmx=   3.5376E-04 dtmpmx=   3.0278E-05

== TH FLOW =====================================================================
 Step    210 Time=  9.75000E+00 Dt=  5.00000E-02 [y] snes_conv_reason:   11
  newton =   1 [     219] linear =   118 [     24731] cuts =  0 [   1]
  --> max chng: dpmx=   3.2703E-04 dtmpmx=   2.8708E-05

== TH FLOW =====================================================================
 Step    211 Time=  9.80000E+00 Dt=  5.00000E-02 [y] snes_conv_reason:   11
  newton =   1 [     220] linear =   118 [     24849] cuts =  0 [   1]
  --> max chng: dpmx=   3.0147E-04 dtmpmx=   2.7146E-05

== TH FLOW =====================================================================
 Step    212 Time=  9.85000E+00 Dt=  5.00000E-02 [y] snes_conv_reason:   11
  newton =   1 [     221] linear =   116 [     24965] cuts =  0 [   1]
  --> max chng: dpmx=   2.7720E-04 dtmpmx=   2.5600E-05

== TH FLOW =====================================================================
 Step    213 Time=  9.90000E+00 Dt=  5.00000E-02 [y] snes_conv_reason:   11
  newton =   1 [     222] linear =   116 [     25081] cuts =  0 [   1]
  --> max chng: dpmx=   2.5434E-04 dtmpmx=   2.4075E-05

== TH FLOW =====================================================================
 Step    214 Time=  9.95000E+00 Dt=  5.00000E-02 [y] snes_conv_reason:   11
  newton =   1 [     223] linear =   115 [     25196] cuts =  0 [   1]
  --> max chng: dpmx=   2.3263E-04 dtmpmx=   2.2578E-05

== TH FLOW =====================================================================
 Step    215 Time=  1.00000E+01 Dt=  5.00000E-02 [y] snes_conv_reason:   11
  newton =   1 [     224] linear =   119 [     25315] cuts =  0 [   1]
  --> max chng: dpmx=   2.1235E-04 dtmpmx=   2.1115E-05

== TH FLOW =====================================================================
 Step    216 Time=  1.00500E+01 Dt=  5.00000E-02 [y] snes_conv_reason:   11
  newton =   1 [     225] linear =   119 [     25434] cuts =  0 [   1]
  --> max chng: dpmx=   1.9319E-04 dtmpmx=   1.9690E-05

== TH FLOW =====================================================================
 Step    217 Time=  1.01000E+01 Dt=  5.00000E-02 [y] snes_conv_reason:   11
  newton =   1 [     226] linear =   117 [     25551] cuts =  0 [   1]
  --> max chng: dpmx=   1.7537E-04 dtmpmx=   1.8309E-05

== TH FLOW =====================================================================
 Step    218 Time=  1.01500E+01 Dt=  5.00000E-02 [y] snes_conv_reason:   11
  newton =   1 [     227] linear =   116 [     25667] cuts =  0 [   1]
  --> max chng: dpmx=   1.5878E-04 dtmpmx=   1.6975E-05

== TH FLOW =====================================================================
 Step    219 Time=  1.02000E+01 Dt=  5.00000E-02 [y] snes_conv_reason:   11
  newton =   1 [     228] linear =   115 [     25782] cuts =  0 [   1]
  --> max chng: dpmx=   1.4326E-04 dtmpmx=   1.5692E-05

== TH FLOW =====================================================================
 Step    220 Time=  1.02500E+01 Dt=  5.00000E-02 [y] snes_conv_reason:   11
  newton =   1 [     229] linear =   118 [     25900] cuts =  0 [   1]
  --> max chng: dpmx=   1.2894E-04 dtmpmx=   1.4463E-05

== TH FLOW =====================================================================
 Step    221 Time=  1.03000E+01 Dt=  5.00000E-02 [y] snes_conv_reason:   11
  newton =   1 [     230] linear =   120 [     26020] cuts =  0 [   1]
  --> max chng: dpmx=   1.1576E-04 dtmpmx=   1.3291E-05

== TH FLOW =====================================================================
 Step    222 Time=  1.03500E+01 Dt=  5.00000E-02 [y] snes_conv_reason:   11
  newton =   1 [     231] linear =   120 [     26140] cuts =  0 [   1]
  --> max chng: dpmx=   1.0361E-04 dtmpmx=   1.2177E-05

== TH FLOW =====================================================================
 Step    223 Time=  1.04000E+01 Dt=  5.00000E-02 [y] snes_conv_reason:   11
  newton =   1 [     232] linear =   120 [     26260] cuts =  0 [   1]
  --> max chng: dpmx=   9.2395E-05 dtmpmx=   1.1122E-05

== TH FLOW =====================================================================
 Step    224 Time=  1.04500E+01 Dt=  5.00000E-02 [y] snes_conv_reason:   11
  newton =   1 [     233] linear =   119 [     26379] cuts =  0 [   1]
  --> max chng: dpmx=   8.2188E-05 dtmpmx=   1.0127E-05

== TH FLOW =====================================================================
 Step    225 Time=  1.05000E+01 Dt=  5.00000E-02 [y] snes_conv_reason:   11
  newton =   1 [     234] linear =   117 [     26496] cuts =  0 [   1]
  --> max chng: dpmx=   7.2855E-05 dtmpmx=   9.1926E-06

== TH FLOW =====================================================================
 Step    226 Time=  1.05500E+01 Dt=  5.00000E-02 [y] snes_conv_reason:   11
  newton =   1 [     235] linear =   119 [     26615] cuts =  0 [   1]
  --> max chng: dpmx=   6.4397E-05 dtmpmx=   8.3178E-06

== TH FLOW =====================================================================
 Step    227 Time=  1.06000E+01 Dt=  5.00000E-02 [y] snes_conv_reason:   11
  newton =   1 [     236] linear =   120 [     26735] cuts =  0 [   1]
  --> max chng: dpmx=   5.6739E-05 dtmpmx=   7.5020E-06

== TH FLOW =====================================================================
 Step    228 Time=  1.06500E+01 Dt=  5.00000E-02 [y] snes_conv_reason:   11
  newton =   1 [     237] linear =   119 [     26854] cuts =  0 [   1]
  --> max chng: dpmx=   4.9776E-05 dtmpmx=   6.7442E-06

== TH FLOW =====================================================================
 Step    229 Time=  1.07000E+01 Dt=  5.00000E-02 [y] snes_conv_reason:   11
  newton =   1 [     238] linear =   117 [     26971] cuts =  0 [   1]
  --> max chng: dpmx=   4.3546E-05 dtmpmx=   6.0427E-06

== TH FLOW =====================================================================
 Step    230 Time=  1.07500E+01 Dt=  5.00000E-02 [y] snes_conv_reason:   11
  newton =   1 [     239] linear =   117 [     27088] cuts =  0 [   1]
  --> max chng: dpmx=   3.7943E-05 dtmpmx=   5.3957E-06

== TH FLOW =====================================================================
 Step    231 Time=  1.08000E+01 Dt=  5.00000E-02 [y] snes_conv_reason:   11
  newton =   1 [     240] linear =   120 [     27208] cuts =  0 [   1]
  --> max chng: dpmx=   3.2925E-05 dtmpmx=   4.8012E-06

== TH FLOW =====================================================================
 Step    232 Time=  1.08500E+01 Dt=  5.00000E-02 [y] snes_conv_reason:   11
  newton =   1 [     241] linear =   120 [     27328] cuts =  0 [   1]
  --> max chng: dpmx=   2.8461E-05 dtmpmx=   4.2570E-06

== TH FLOW =====================================================================
 Step    233 Time=  1.09000E+01 Dt=  5.00000E-02 [y] snes_conv_reason:   11
  newton =   1 [     242] linear =   122 [     27450] cuts =  0 [   1]
  --> max chng: dpmx=   2.4492E-05 dtmpmx=   3.7604E-06

== TH FLOW =====================================================================
 Step    234 Time=  1.09500E+01 Dt=  5.00000E-02 [y] snes_conv_reason:   11
  newton =   1 [     243] linear =   124 [     27574] cuts =  0 [   1]
  --> max chng: dpmx=   2.0978E-05 dtmpmx=   3.3090E-06

== TH FLOW =====================================================================
 Step    235 Time=  1.10000E+01 Dt=  5.00000E-02 [y] snes_conv_reason:   11
  newton =   1 [     244] linear =   123 [     27697] cuts =  0 [   1]
  --> max chng: dpmx=   1.7882E-05 dtmpmx=   2.9002E-06

== TH FLOW =====================================================================
 Step    236 Time=  1.10500E+01 Dt=  5.00000E-02 [y] snes_conv_reason:   11
  newton =   1 [     245] linear =   123 [     27820] cuts =  0 [   1]
  --> max chng: dpmx=   1.5152E-05 dtmpmx=   2.5312E-06

== TH FLOW =====================================================================
 Step    237 Time=  1.11000E+01 Dt=  5.00000E-02 [y] snes_conv_reason:   11
  newton =   1 [     246] linear =   122 [     27942] cuts =  0 [   1]
  --> max chng: dpmx=   1.2769E-05 dtmpmx=   2.1992E-06

== TH FLOW =====================================================================
 Step    238 Time=  1.11500E+01 Dt=  5.00000E-02 [y] snes_conv_reason:   11
  newton =   1 [     247] linear =   128 [     28070] cuts =  0 [   1]
  --> max chng: dpmx=   1.0694E-05 dtmpmx=   1.9018E-06

== TH FLOW =====================================================================
 Step    239 Time=  1.12000E+01 Dt=  5.00000E-02 [y] snes_conv_reason:   11
  newton =   1 [     248] linear =   125 [     28195] cuts =  0 [   1]
  --> max chng: dpmx=   8.8890E-06 dtmpmx=   1.6362E-06

== TH FLOW =====================================================================
 Step    240 Time=  1.12500E+01 Dt=  5.00000E-02 [y] snes_conv_reason:   11
  newton =   1 [     249] linear =   123 [     28318] cuts =  0 [   1]
  --> max chng: dpmx=   7.3349E-06 dtmpmx=   1.3997E-06

== TH FLOW =====================================================================
 Step    241 Time=  1.13000E+01 Dt=  5.00000E-02 [y] snes_conv_reason:   11
  newton =   1 [     250] linear =   122 [     28440] cuts =  0 [   1]
  --> max chng: dpmx=   5.9978E-06 dtmpmx=   1.1901E-06

== TH FLOW =====================================================================
 Step    242 Time=  1.13500E+01 Dt=  5.00000E-02 [y] snes_conv_reason:   11
  newton =   1 [     251] linear =   122 [     28562] cuts =  0 [   1]
  --> max chng: dpmx=   4.8578E-06 dtmpmx=   1.0049E-06

== TH FLOW =====================================================================
 Step    243 Time=  1.14000E+01 Dt=  5.00000E-02 [y] snes_conv_reason:   11
  newton =   1 [     252] linear =   122 [     28684] cuts =  0 [   1]
  --> max chng: dpmx=   3.8897E-06 dtmpmx=   8.4184E-07

== TH FLOW =====================================================================
 Step    244 Time=  1.14500E+01 Dt=  5.00000E-02 [y] snes_conv_reason:   11
  newton =   1 [     253] linear =   122 [     28806] cuts =  0 [   1]
  --> max chng: dpmx=   3.0746E-06 dtmpmx=   6.9886E-07

== TH FLOW =====================================================================
 Step    245 Time=  1.15000E+01 Dt=  5.00000E-02 [y] snes_conv_reason:   11
  newton =   1 [     254] linear =   123 [     28929] cuts =  0 [   1]
  --> max chng: dpmx=   2.3950E-06 dtmpmx=   5.7377E-07

== TH FLOW =====================================================================
 Step    246 Time=  1.15500E+01 Dt=  5.00000E-02 [y] snes_conv_reason:   11
  newton =   1 [     255] linear =   121 [     29050] cuts =  0 [   1]
  --> max chng: dpmx=   2.0763E-06 dtmpmx=   4.6496E-07

== TH FLOW =====================================================================
 Step    247 Time=  1.16000E+01 Dt=  5.00000E-02 [y] snes_conv_reason:   11
  newton =   1 [     256] linear =   121 [     29171] cuts =  0 [   1]
  --> max chng: dpmx=   2.3333E-06 dtmpmx=   3.7057E-07

== TH FLOW =====================================================================
 Step    248 Time=  1.16500E+01 Dt=  5.00000E-02 [y] snes_conv_reason:   11
  newton =   1 [     257] linear =   118 [     29289] cuts =  0 [   1]
  --> max chng: dpmx=   2.5458E-06 dtmpmx=   2.8904E-07

== TH FLOW =====================================================================
 Step    249 Time=  1.17000E+01 Dt=  5.00000E-02 [y] snes_conv_reason:   11
  newton =   1 [     258] linear =   120 [     29409] cuts =  0 [   1]
  --> max chng: dpmx=   2.7200E-06 dtmpmx=   2.1893E-07

== TH FLOW =====================================================================
 Step    250 Time=  1.17500E+01 Dt=  5.00000E-02 [y] snes_conv_reason:   11
  newton =   1 [     259] linear =   120 [     29529] cuts =  0 [   1]
  --> max chng: dpmx=   2.8552E-06 dtmpmx=   1.5886E-07

== TH FLOW =====================================================================
 Step    251 Time=  1.18000E+01 Dt=  5.00000E-02 [y] snes_conv_reason:   11
  newton =   1 [     260] linear =   113 [     29642] cuts =  0 [   1]
  --> max chng: dpmx=   2.9582E-06 dtmpmx=   1.3297E-07

== TH FLOW =====================================================================
 Step    252 Time=  1.18500E+01 Dt=  5.00000E-02 [y] snes_conv_reason:   11
  newton =   1 [     261] linear =   117 [     29759] cuts =  0 [   1]
  --> max chng: dpmx=   3.0305E-06 dtmpmx=   1.3229E-07

== TH FLOW =====================================================================
 Step    253 Time=  1.19000E+01 Dt=  5.00000E-02 [y] snes_conv_reason:   11
  newton =   1 [     262] linear =   107 [     29866] cuts =  0 [   1]
  --> max chng: dpmx=   3.0777E-06 dtmpmx=   1.3162E-07

== TH FLOW =====================================================================
 Step    254 Time=  1.19500E+01 Dt=  5.00000E-02 [y] snes_conv_reason:   11
  newton =   1 [     263] linear =   115 [     29981] cuts =  0 [   1]
  --> max chng: dpmx=   3.1024E-06 dtmpmx=   1.3097E-07

== TH FLOW =====================================================================
 Step    255 Time=  1.20000E+01 Dt=  5.00000E-02 [y] snes_conv_reason:   11
  newton =   1 [     264] linear =   114 [     30095] cuts =  0 [   1]
  --> max chng: dpmx=   3.1070E-06 dtmpmx=   1.3029E-07

== TH FLOW =====================================================================
 Step    256 Time=  1.20500E+01 Dt=  5.00000E-02 [y] snes_conv_reason:   11
  newton =   1 [     265] linear =   111 [     30206] cuts =  0 [   1]
  --> max chng: dpmx=   3.0949E-06 dtmpmx=   1.2965E-07

== TH FLOW =====================================================================
 Step    257 Time=  1.21000E+01 Dt=  5.00000E-02 [y] snes_conv_reason:   11
  newton =   1 [     266] linear =   109 [     30315] cuts =  0 [   1]
  --> max chng: dpmx=   3.0692E-06 dtmpmx=   1.2902E-07

[...]
 Step    496 Time=  2.40500E+01 Dt=  5.00000E-02 [y] snes_conv_reason:   11
  newton =   1 [     505] linear =    70 [     55472] cuts =  0 [   1]
  --> max chng: dpmx=   1.1642E-10 dtmpmx=   7.7103E-11

== TH FLOW =====================================================================
 Step    497 Time=  2.41000E+01 Dt=  5.00000E-02 [y] snes_conv_reason:   11
  newton =   1 [     506] linear =   110 [     55582] cuts =  0 [   1]
  --> max chng: dpmx=   1.1642E-10 dtmpmx=   7.7394E-11

== TH FLOW =====================================================================
 Step    498 Time=  2.41500E+01 Dt=  5.00000E-02 [y] snes_conv_reason:   11
  newton =   1 [     507] linear =    87 [     55669] cuts =  0 [   1]
  --> max chng: dpmx=   1.1642E-10 dtmpmx=   7.8009E-11

== TH FLOW =====================================================================
 Step    499 Time=  2.42000E+01 Dt=  5.00000E-02 [y] snes_conv_reason:   11
  newton =   1 [     508] linear =    69 [     55738] cuts =  0 [   1]
  --> max chng: dpmx=   1.1642E-10 dtmpmx=   7.2976E-11

== TH FLOW =====================================================================
 Step    500 Time=  2.42500E+01 Dt=  5.00000E-02 [y] snes_conv_reason:   11
  newton =   1 [     509] linear =   106 [     55844] cuts =  0 [   1]
  --> max chng: dpmx=   1.1642E-10 dtmpmx=   7.9879E-11

== TH FLOW =====================================================================
 Step    501 Time=  2.43000E+01 Dt=  5.00000E-02 [y] snes_conv_reason:   11
  newton =   1 [     510] linear =    84 [     55928] cuts =  0 [   1]
  --> max chng: dpmx=   1.1642E-10 dtmpmx=   7.3980E-11

== TH FLOW =====================================================================
 Step    502 Time=  2.43500E+01 Dt=  5.00000E-02 [y] snes_conv_reason:   11
  newton =   1 [     511] linear =    72 [     56000] cuts =  0 [   1]
  --> max chng: dpmx=   1.1642E-10 dtmpmx=   8.8548E-11

== TH FLOW =====================================================================
 Step    503 Time=  2.44000E+01 Dt=  5.00000E-02 [y] snes_conv_reason:   11
  newton =   1 [     512] linear =   103 [     56103] cuts =  0 [   1]
  --> max chng: dpmx=   1.1642E-10 dtmpmx=   7.6179E-11

== TH FLOW =====================================================================
 Step    504 Time=  2.44500E+01 Dt=  5.00000E-02 [y] snes_conv_reason:   11
  newton =   1 [     513] linear =    76 [     56179] cuts =  0 [   1]
  --> max chng: dpmx=   1.1642E-10 dtmpmx=   8.3158E-11

== TH FLOW =====================================================================
 Step    505 Time=  2.45000E+01 Dt=  5.00000E-02 [y] snes_conv_reason:   11
  newton =   1 [     514] linear =    91 [     56270] cuts =  0 [   1]
  --> max chng: dpmx=   1.1642E-10 dtmpmx=   7.1260E-11

== TH FLOW =====================================================================
 Step    506 Time=  2.45500E+01 Dt=  5.00000E-02 [y] snes_conv_reason:   11
  newton =   1 [     515] linear =   109 [     56379] cuts =  0 [   1]
  --> max chng: dpmx=   1.1642E-10 dtmpmx=   9.1580E-11

== TH FLOW =====================================================================
 Step    507 Time=  2.46000E+01 Dt=  5.00000E-02 [y] snes_conv_reason:   11
  newton =   1 [     516] linear =    65 [     56444] cuts =  0 [   1]
  --> max chng: dpmx=   1.1642E-10 dtmpmx=   8.1293E-11

== TH FLOW =====================================================================
 Step    508 Time=  2.46500E+01 Dt=  5.00000E-02 [y] snes_conv_reason:   11
  newton =   1 [     517] linear =    80 [     56524] cuts =  0 [   1]
  --> max chng: dpmx=   1.1642E-10 dtmpmx=   8.6938E-11

== TH FLOW =====================================================================
 Step    509 Time=  2.47000E+01 Dt=  5.00000E-02 [y] snes_conv_reason:   11
  newton =   1 [     518] linear =    96 [     56620] cuts =  0 [   1]
  --> max chng: dpmx=   1.1642E-10 dtmpmx=   8.9910E-11

== TH FLOW =====================================================================
 Step    510 Time=  2.47500E+01 Dt=  5.00000E-02 [y] snes_conv_reason:   11
  newton =   1 [     519] linear =    80 [     56700] cuts =  0 [   1]
  --> max chng: dpmx=   1.1642E-10 dtmpmx=   7.1957E-11

== TH FLOW =====================================================================
 Step    511 Time=  2.48000E+01 Dt=  5.00000E-02 [y] snes_conv_reason:   11
  newton =   1 [     520] linear =    58 [     56758] cuts =  0 [   1]
  --> max chng: dpmx=   1.1642E-10 dtmpmx=   8.1087E-11

== TH FLOW =====================================================================
 Step    512 Time=  2.48500E+01 Dt=  5.00000E-02 [y] snes_conv_reason:   11
  newton =   1 [     521] linear =    54 [     56812] cuts =  0 [   1]
  --> max chng: dpmx=   1.1642E-10 dtmpmx=   7.2225E-11

== TH FLOW =====================================================================
 Step    513 Time=  2.49000E+01 Dt=  5.00000E-02 [y] snes_conv_reason:   11
  newton =   1 [     522] linear =    95 [     56907] cuts =  0 [   1]
  --> max chng: dpmx=   1.1642E-10 dtmpmx=   7.5655E-11

== TH FLOW =====================================================================
 Step    514 Time=  2.49500E+01 Dt=  5.00000E-02 [y] snes_conv_reason:   11
  newton =   1 [     523] linear =    84 [     56991] cuts =  0 [   1]
  --> max chng: dpmx=   1.1642E-10 dtmpmx=   8.0419E-11

== TH FLOW =====================================================================
 Step    515 Time=  2.50000E+01 Dt=  5.00000E-02 [y] snes_conv_reason:   11
  newton =   1 [     524] linear =    97 [     57088] cuts =  0 [   1]
  --> max chng: dpmx=   1.1642E-10 dtmpmx=   8.4846E-11

== TH FLOW =====================================================================
 Step    516 Time=  2.50500E+01 Dt=  5.00000E-02 [y] snes_conv_reason:   11
  newton =   1 [     525] linear =    67 [     57155] cuts =  0 [   1]
  --> max chng: dpmx=   1.1642E-10 dtmpmx=   6.9788E-11

== TH FLOW =====================================================================
 Step    517 Time=  2.51000E+01 Dt=  5.00000E-02 [y] snes_conv_reason:   11
  newton =   1 [     526] linear =    98 [     57253] cuts =  0 [   1]
  --> max chng: dpmx=   1.1642E-10 dtmpmx=   7.5422E-11

== TH FLOW =====================================================================
 Step    518 Time=  2.51500E+01 Dt=  5.00000E-02 [y] snes_conv_reason:   11
  newton =   1 [     527] linear =   112 [     57365] cuts =  0 [   1]
  --> max chng: dpmx=   1.1642E-10 dtmpmx=   7.7062E-11

== TH FLOW =====================================================================
 Step    519 Time=  2.52000E+01 Dt=  5.00000E-02 [y] snes_conv_reason:   11
  newton =   1 [     528] linear =    98 [     57463] cuts =  0 [   1]
  --> max chng: dpmx=   1.1642E-10 dtmpmx=   7.0774E-11

== TH FLOW =====================================================================
 Step    520 Time=  2.52500E+01 Dt=  5.00000E-02 [y] snes_conv_reason:   11
  newton =   1 [     529] linear =    89 [     57552] cuts =  0 [   1]
  --> max chng: dpmx=   1.1642E-10 dtmpmx=   7.4678E-11

== TH FLOW =====================================================================
 Step    521 Time=  2.53000E+01 Dt=  5.00000E-02 [y] snes_conv_reason:   11
  newton =   1 [     530] linear =    86 [     57638] cuts =  0 [   1]
  --> max chng: dpmx=   1.1642E-10 dtmpmx=   7.3106E-11

== TH FLOW =====================================================================
 Step    522 Time=  2.53500E+01 Dt=  5.00000E-02 [y] snes_conv_reason:   11
  newton =   1 [     531] linear =    50 [     57688] cuts =  0 [   1]
  --> max chng: dpmx=   1.1642E-10 dtmpmx=   7.5310E-11

== TH FLOW =====================================================================
 Step    523 Time=  2.54000E+01 Dt=  5.00000E-02 [y] snes_conv_reason:   11
  newton =   1 [     532] linear =    61 [     57749] cuts =  0 [   1]
  --> max chng: dpmx=   1.1642E-10 dtmpmx=   8.5418E-11

== TH FLOW =====================================================================
 Step    524 Time=  2.54500E+01 Dt=  5.00000E-02 [y] snes_conv_reason:   11
  newton =   1 [     533] linear =    84 [     57833] cuts =  0 [   1]
  --> max chng: dpmx=   1.1642E-10 dtmpmx=   8.0904E-11

== TH FLOW =====================================================================
 Step    525 Time=  2.55000E+01 Dt=  5.00000E-02 [y] snes_conv_reason:   11
  newton =   1 [     534] linear =    98 [     57931] cuts =  0 [   1]
  --> max chng: dpmx=   1.1642E-10 dtmpmx=   7.9934E-11

== TH FLOW =====================================================================
 Step    526 Time=  2.55500E+01 Dt=  5.00000E-02 [y] snes_conv_reason:   11
  newton =   1 [     535] linear =    96 [     58027] cuts =  0 [   1]
  --> max chng: dpmx=   1.1642E-10 dtmpmx=   7.9918E-11

== TH FLOW =====================================================================
 Step    527 Time=  2.56000E+01 Dt=  5.00000E-02 [y] snes_conv_reason:   11
  newton =   1 [     536] linear =    71 [     58098] cuts =  0 [   1]
  --> max chng: dpmx=   1.1642E-10 dtmpmx=   7.0484E-11

== TH FLOW =====================================================================
 Step    528 Time=  2.56500E+01 Dt=  5.00000E-02 [y] snes_conv_reason:   11
  newton =   1 [     537] linear =    82 [     58180] cuts =  0 [   1]
  --> max chng: dpmx=   1.1642E-10 dtmpmx=   8.3228E-11

== TH FLOW =====================================================================
 Step    529 Time=  2.57000E+01 Dt=  5.00000E-02 [y] snes_conv_reason:   11
  newton =   1 [     538] linear =    95 [     58275] cuts =  0 [   1]
  --> max chng: dpmx=   1.1642E-10 dtmpmx=   8.4155E-11

== TH FLOW =====================================================================
 Step    530 Time=  2.57500E+01 Dt=  5.00000E-02 [y] snes_conv_reason:   11
  newton =   1 [     539] linear =    97 [     58372] cuts =  0 [   1]
  --> max chng: dpmx=   1.1642E-10 dtmpmx=   7.9609E-11

== TH FLOW =====================================================================
 Step    531 Time=  2.58000E+01 Dt=  5.00000E-02 [y] snes_conv_reason:   11
  newton =   1 [     540] linear =    61 [     58433] cuts =  0 [   1]
  --> max chng: dpmx=   1.1642E-10 dtmpmx=   7.6033E-11

== TH FLOW =====================================================================
 Step    532 Time=  2.58500E+01 Dt=  5.00000E-02 [y] snes_conv_reason:   11
  newton =   1 [     541] linear =    77 [     58510] cuts =  0 [   1]
  --> max chng: dpmx=   1.1642E-10 dtmpmx=   7.8355E-11

== TH FLOW =====================================================================
 Step    533 Time=  2.59000E+01 Dt=  5.00000E-02 [y] snes_conv_reason:   11
  newton =   1 [     542] linear =    98 [     58608] cuts =  0 [   1]
  --> max chng: dpmx=   1.1642E-10 dtmpmx=   7.5856E-11

== TH FLOW =====================================================================
 Step    534 Time=  2.59500E+01 Dt=  5.00000E-02 [y] snes_conv_reason:   11
  newton =   1 [     543] linear =    57 [     58665] cuts =  0 [   1]
  --> max chng: dpmx=   1.1642E-10 dtmpmx=   7.6026E-11

== TH FLOW =====================================================================
 Step    535 Time=  2.60000E+01 Dt=  5.00000E-02 [y] snes_conv_reason:   11
  newton =   1 [     544] linear =    66 [     58731] cuts =  0 [   1]
  --> max chng: dpmx=   1.1642E-10 dtmpmx=   8.6526E-11

== TH FLOW =====================================================================
 Step    536 Time=  2.60500E+01 Dt=  5.00000E-02 [y] snes_conv_reason:   11
  newton =   1 [     545] linear =   118 [     58849] cuts =  0 [   1]
  --> max chng: dpmx=   1.1642E-10 dtmpmx=   7.9117E-11

== TH FLOW =====================================================================
 Step    537 Time=  2.61000E+01 Dt=  5.00000E-02 [y] snes_conv_reason:   11
  newton =   1 [     546] linear =   107 [     58956] cuts =  0 [   1]
  --> max chng: dpmx=   1.1642E-10 dtmpmx=   8.3631E-11

== TH FLOW =====================================================================
 Step    538 Time=  2.61500E+01 Dt=  5.00000E-02 [y] snes_conv_reason:   11
  newton =   1 [     547] linear =    87 [     59043] cuts =  0 [   1]
  --> max chng: dpmx=   1.1642E-10 dtmpmx=   8.6397E-11

== TH FLOW =====================================================================
 Step    539 Time=  2.62000E+01 Dt=  5.00000E-02 [y] snes_conv_reason:   11
  newton =   1 [     548] linear =    47 [     59090] cuts =  0 [   1]
  --> max chng: dpmx=   1.1642E-10 dtmpmx=   7.3170E-11

== TH FLOW =====================================================================
 Step    540 Time=  2.62500E+01 Dt=  5.00000E-02 [y] snes_conv_reason:   11
  newton =   1 [     549] linear =    73 [     59163] cuts =  0 [   1]
  --> max chng: dpmx=   1.1642E-10 dtmpmx=   8.9377E-11

== TH FLOW =====================================================================
 Step    541 Time=  2.63000E+01 Dt=  5.00000E-02 [y] snes_conv_reason:   11
  newton =   1 [     550] linear =    89 [     59252] cuts =  0 [   1]
  --> max chng: dpmx=   1.1642E-10 dtmpmx=   8.1164E-11

== TH FLOW =====================================================================
 Step    542 Time=  2.63500E+01 Dt=  5.00000E-02 [y] snes_conv_reason:   11
  newton =   1 [     551] linear =    78 [     59330] cuts =  0 [   1]
  --> max chng: dpmx=   1.1642E-10 dtmpmx=   7.8392E-11

== TH FLOW =====================================================================
 Step    543 Time=  2.64000E+01 Dt=  5.00000E-02 [y] snes_conv_reason:   11
  newton =   1 [     552] linear =   106 [     59436] cuts =  0 [   1]
  --> max chng: dpmx=   1.1642E-10 dtmpmx=   7.7366E-11

== TH FLOW =====================================================================
 Step    544 Time=  2.64500E+01 Dt=  5.00000E-02 [y] snes_conv_reason:   11
  newton =   1 [     553] linear =    52 [     59488] cuts =  0 [   1]
  --> max chng: dpmx=   1.1642E-10 dtmpmx=   8.7782E-11

== TH FLOW =====================================================================
 Step    545 Time=  2.65000E+01 Dt=  5.00000E-02 [y] snes_conv_reason:   11
  newton =   1 [     554] linear =    75 [     59563] cuts =  0 [   1]
  --> max chng: dpmx=   1.1642E-10 dtmpmx=   7.9192E-11

== TH FLOW =====================================================================
 Step    546 Time=  2.65500E+01 Dt=  5.00000E-02 [y] snes_conv_reason:   11
  newton =   1 [     555] linear =    97 [     59660] cuts =  0 [   1]
  --> max chng: dpmx=   1.1642E-10 dtmpmx=   7.9819E-11

== TH FLOW =====================================================================
 Step    547 Time=  2.66000E+01 Dt=  5.00000E-02 [y] snes_conv_reason:   11
  newton =   1 [     556] linear =    67 [     59727] cuts =  0 [   1]
  --> max chng: dpmx=   1.1642E-10 dtmpmx=   7.3333E-11

== TH FLOW =====================================================================
 Step    548 Time=  2.66500E+01 Dt=  5.00000E-02 [y] snes_conv_reason:   11
  newton =   1 [     557] linear =    65 [     59792] cuts =  0 [   1]
  --> max chng: dpmx=   1.1642E-10 dtmpmx=   8.0824E-11

== TH FLOW =====================================================================
 Step    549 Time=  2.67000E+01 Dt=  5.00000E-02 [y] snes_conv_reason:   11
  newton =   1 [     558] linear =    78 [     59870] cuts =  0 [   1]
  --> max chng: dpmx=   1.1642E-10 dtmpmx=   7.7808E-11

== TH FLOW =====================================================================
 Step    550 Time=  2.67500E+01 Dt=  5.00000E-02 [y] snes_conv_reason:   11
  newton =   1 [     559] linear =    83 [     59953] cuts =  0 [   1]
  --> max chng: dpmx=   1.1642E-10 dtmpmx=   7.4884E-11

== TH FLOW =====================================================================
 Step    551 Time=  2.68000E+01 Dt=  5.00000E-02 [y] snes_conv_reason:   11
  newton =   1 [     560] linear =   100 [     60053] cuts =  0 [   1]
  --> max chng: dpmx=   1.1642E-10 dtmpmx=   7.8968E-11

== TH FLOW =====================================================================
 Step    552 Time=  2.68500E+01 Dt=  5.00000E-02 [y] snes_conv_reason:   11
  newton =   1 [     561] linear =    67 [     60120] cuts =  0 [   1]
  --> max chng: dpmx=   1.1642E-10 dtmpmx=   8.3267E-11

== TH FLOW =====================================================================
 Step    553 Time=  2.69000E+01 Dt=  5.00000E-02 [y] snes_conv_reason:   11
  newton =   1 [     562] linear =   103 [     60223] cuts =  0 [   1]
  --> max chng: dpmx=   1.1642E-10 dtmpmx=   8.1602E-11

== TH FLOW =====================================================================
 Step    554 Time=  2.69500E+01 Dt=  5.00000E-02 [y] snes_conv_reason:   11
  newton =   1 [     563] linear =    81 [     60304] cuts =  0 [   1]
  --> max chng: dpmx=   1.1642E-10 dtmpmx=   9.2856E-11

== TH FLOW =====================================================================
 Step    555 Time=  2.70000E+01 Dt=  5.00000E-02 [y] snes_conv_reason:   11
  newton =   1 [     564] linear =    55 [     60359] cuts =  0 [   1]
  --> max chng: dpmx=   1.1642E-10 dtmpmx=   7.5255E-11

== TH FLOW =====================================================================
 Step    556 Time=  2.70500E+01 Dt=  5.00000E-02 [y] snes_conv_reason:   11
  newton =   1 [     565] linear =    76 [     60435] cuts =  0 [   1]
  --> max chng: dpmx=   1.1642E-10 dtmpmx=   8.6890E-11

== TH FLOW =====================================================================
 Step    557 Time=  2.71000E+01 Dt=  5.00000E-02 [y] snes_conv_reason:   11
  newton =   1 [     566] linear =    76 [     60511] cuts =  0 [   1]
  --> max chng: dpmx=   1.1642E-10 dtmpmx=   7.2840E-11

== TH FLOW =====================================================================
 Step    558 Time=  2.71500E+01 Dt=  5.00000E-02 [y] snes_conv_reason:   11
  newton =   1 [     567] linear =    69 [     60580] cuts =  0 [   1]
  --> max chng: dpmx=   1.1642E-10 dtmpmx=   9.0882E-11

== TH FLOW =====================================================================
 Step    559 Time=  2.72000E+01 Dt=  5.00000E-02 [y] snes_conv_reason:   11
  newton =   1 [     568] linear =    88 [     60668] cuts =  0 [   1]
  --> max chng: dpmx=   1.1642E-10 dtmpmx=   7.6678E-11

== TH FLOW =====================================================================
 Step    560 Time=  2.72500E+01 Dt=  5.00000E-02 [y] snes_conv_reason:   11
  newton =   1 [     569] linear =   101 [     60769] cuts =  0 [   1]
  --> max chng: dpmx=   1.1642E-10 dtmpmx=   8.6837E-11

== TH FLOW =====================================================================
 Step    561 Time=  2.73000E+01 Dt=  5.00000E-02 [y] snes_conv_reason:   11
  newton =   1 [     570] linear =    49 [     60818] cuts =  0 [   1]
  --> max chng: dpmx=   1.1642E-10 dtmpmx=   7.9117E-11

== TH FLOW =====================================================================
 Step    562 Time=  2.73500E+01 Dt=  5.00000E-02 [y] snes_conv_reason:   11
  newton =   1 [     571] linear =    53 [     60871] cuts =  0 [   1]
  --> max chng: dpmx=   1.1642E-10 dtmpmx=   9.2687E-11

== TH FLOW =====================================================================
 Step    563 Time=  2.74000E+01 Dt=  5.00000E-02 [y] snes_conv_reason:   11
  newton =   1 [     572] linear =   111 [     60982] cuts =  0 [   1]
  --> max chng: dpmx=   1.1642E-10 dtmpmx=   7.4918E-11

== TH FLOW =====================================================================
 Step    564 Time=  2.74500E+01 Dt=  5.00000E-02 [y] snes_conv_reason:   11
  newton =   1 [     573] linear =    92 [     61074] cuts =  0 [   1]
  --> max chng: dpmx=   1.1642E-10 dtmpmx=   7.4893E-11

== TH FLOW =====================================================================
 Step    565 Time=  2.75000E+01 Dt=  5.00000E-02 [y] snes_conv_reason:   11
  newton =   1 [     574] linear =    82 [     61156] cuts =  0 [   1]
  --> max chng: dpmx=   1.1642E-10 dtmpmx=   7.6845E-11

 Wall Clock Time:  1.9467E+02 [sec]   3.2445E+00 [min]   5.4074E-02 [hr]
