
===================
  PFLOTRAN v3.0.1
===================

 Extent of Gridded Domain
  X: 2.5000000000000000 - 97.500000000000000
  Y: 2.5000000000000000 - 1277.5000000000000
  Z: 2.5000000000000000 - 2.5000000000000000


=+=+=+=+=+=+=+=+=+=+=+=+=+=+=+=+=+=+=+=+=+=+=+=+=+=+=+=+=+=+=+=+=+=+=+=+=+=+=+=+

  Initial Condition

--------------------------------------------------------------------------------
          Flow Condition:   initial
                  Region:   all
--------------------------------------------------------------------------------

  Flow Condition: initial
    Synchronize time with update: no
    Time units: yr
    Length units: m
      Datum:
        Dataset: Unnamed Ascii Dataset
          Type: dataset_ascii_type
          Transient: no
          Array Rank:  3

    Sub Condition: pressure
      Type: hydrostatic
      Gradient:
        Dataset: Unnamed Ascii Dataset
          Type: dataset_ascii_type
          Transient: no
          Array Rank:  3
      Data:
        Dataset: Unnamed Ascii Dataset
          Type: dataset_ascii_type
          Transient: no
          Array Rank:  1

    Sub Condition: temperature
      Type: dirichlet
      Gradient:
      Data:
        Dataset: Unnamed Ascii Dataset
          Type: dataset_ascii_type
          Transient: no
          Array Rank:  1

--------------------------------------------------------------------------------

=+=+=+=+=+=+=+=+=+=+=+=+=+=+=+=+=+=+=+=+=+=+=+=+=+=+=+=+=+=+=+=+=+=+=+=+=+=+=+=+

  Boundary Condition

--------------------------------------------------------------------------------
          Flow Condition:   initial
                  Region:   north
--------------------------------------------------------------------------------

  Flow Condition: initial
    Synchronize time with update: no
    Time units: yr
    Length units: m
      Datum:
        Dataset: Unnamed Ascii Dataset
          Type: dataset_ascii_type
          Transient: no
          Array Rank:  3

    Sub Condition: pressure
      Type: hydrostatic
      Gradient:
        Dataset: Unnamed Ascii Dataset
          Type: dataset_ascii_type
          Transient: no
          Array Rank:  3
      Data:
        Dataset: Unnamed Ascii Dataset
          Type: dataset_ascii_type
          Transient: no
          Array Rank:  1

    Sub Condition: temperature
      Type: dirichlet
      Gradient:
      Data:
        Dataset: Unnamed Ascii Dataset
          Type: dataset_ascii_type
          Transient: no
          Array Rank:  1

--------------------------------------------------------------------------------

=+=+=+=+=+=+=+=+=+=+=+=+=+=+=+=+=+=+=+=+=+=+=+=+=+=+=+=+=+=+=+=+=+=+=+=+=+=+=+=+

  Boundary Condition

--------------------------------------------------------------------------------
          Flow Condition:   initial
                  Region:   south
--------------------------------------------------------------------------------

  Flow Condition: initial
    Synchronize time with update: no
    Time units: yr
    Length units: m
      Datum:
        Dataset: Unnamed Ascii Dataset
          Type: dataset_ascii_type
          Transient: no
          Array Rank:  3

    Sub Condition: pressure
      Type: hydrostatic
      Gradient:
        Dataset: Unnamed Ascii Dataset
          Type: dataset_ascii_type
          Transient: no
          Array Rank:  3
      Data:
        Dataset: Unnamed Ascii Dataset
          Type: dataset_ascii_type
          Transient: no
          Array Rank:  1

    Sub Condition: temperature
      Type: dirichlet
      Gradient:
      Data:
        Dataset: Unnamed Ascii Dataset
          Type: dataset_ascii_type
          Transient: no
          Array Rank:  1

--------------------------------------------------------------------------------

=+=+=+=+=+=+=+=+=+=+=+=+=+=+=+=+=+=+=+=+=+=+=+=+=+=+=+=+=+=+=+=+=+=+=+=+=+=+=+=+

  Source Sink

--------------------------------------------------------------------------------
          Flow Condition:   injection
                  Region:   heatpump_inject0
--------------------------------------------------------------------------------

  Flow Condition: injection
    Synchronize time with update: no
    Time units: yr
    Length units: m
      Datum:

    Sub Condition: rate
      Type: scaled volumetric rate
      Gradient:
      Data:
        Dataset: Unnamed Ascii Dataset
          Type: dataset_ascii_type
          Is transient?: yes
          Number of times:      3
          Is cyclic?: no
          Buffer:
            Rank:  2
            Dims:    1   3
            Buffer Slice Size:   0
          Array Rank:  1

    Sub Condition: temperature
      Type: dirichlet
      Gradient:
      Data:
        Dataset: Unnamed Ascii Dataset
          Type: dataset_ascii_type
          Transient: no
          Array Rank:  1

--------------------------------------------------------------------------------

 Requested processors =    16

FLOW Time Stepper
                 acceleration: on
       acceleration threshold: 5
       number of ramp entries: 5
                ramp entry #1: 2.0000
                ramp entry #2: 2.0000
                ramp entry #3: 2.0000
                ramp entry #4: 2.0000
                ramp entry #5: 2.0000
                ramp entry #6: 1.8000
                ramp entry #7: 1.6000
                ramp entry #8: 1.4000
                ramp entry #9: 1.2000
               ramp entry #10: 1.0000
               ramp entry #11: 1.0000
               ramp entry #12: 1.0000
               ramp entry #13: 1.0000
      maximum number of steps: 999999
constant time steps threshold: 5
       maximum number of cuts: 16
             reduction factor: 5.000000E-01
        maximum growth factor: 2.000000E+00

FLOW Newton Solver
                         atol: 1.000000E-50
                         rtol: 1.000000E-03
                         stol: 1.000000E-08
                         dtol: 1.000000E+04
                      maxnorm: 1.000000E+20
                    inftolres: -9.990000E+02
                    inftolupd: 1.000000E+00
                 inftolrelupd: -9.990000E+02
                 inftolsclres: -9.990000E+02
                     max iter: 50
                     min iter: 1
                         maxf: 10000
                  matrix type: baij
         precond. matrix type: baij
               inexact newton: off
            print convergence: on
   print detailed convergence: off
          check infinity norm: on

FLOW Linear Solver
                       solver: bcgs
               preconditioner: bjacobi
                         atol: 1.000000E-50
                         rtol: 1.000000E-05
                         dtol: 1.000000E+04
            maximum iteration: 10000

== TH FLOW =====================================================================
 Step      1 Time=  1.00000E-05 Dt=  1.00000E-05 [y] snes_conv_reason:   11
  newton =   1 [       1] linear =    65 [        65] cuts =  0 [   0]
  --> max chng: dpmx=   7.7070E-02 dtmpmx=   1.8914E-08

== TH FLOW =====================================================================
 Step      2 Time=  3.00000E-05 Dt=  2.00000E-05 [y] snes_conv_reason:   11
  newton =   1 [       2] linear =    93 [       158] cuts =  0 [   0]
  --> max chng: dpmx=   8.7514E-03 dtmpmx=   3.7647E-08

== TH FLOW =====================================================================
 Step      3 Time=  7.00000E-05 Dt=  4.00000E-05 [y] snes_conv_reason:   11
  newton =   1 [       3] linear =   112 [       270] cuts =  0 [   0]
  --> max chng: dpmx=   4.9750E-04 dtmpmx=   7.5273E-08

== TH FLOW =====================================================================
 Step      4 Time=  1.50000E-04 Dt=  8.00000E-05 [y] snes_conv_reason:   11
  newton =   1 [       4] linear =   114 [       384] cuts =  0 [   0]
  --> max chng: dpmx=   1.4044E-05 dtmpmx=   1.5055E-07

== TH FLOW =====================================================================
 Step      5 Time=  3.10000E-04 Dt=  1.60000E-04 [y] snes_conv_reason:   11
  newton =   1 [       5] linear =   122 [       506] cuts =  0 [   0]
  --> max chng: dpmx=   1.0232E-06 dtmpmx=   3.0109E-07

== TH FLOW =====================================================================
 Step      6 Time=  6.30000E-04 Dt=  3.20000E-04 [y] snes_conv_reason:   11
  newton =   1 [       6] linear =   119 [       625] cuts =  0 [   0]
  --> max chng: dpmx=   2.1007E-06 dtmpmx=   6.0219E-07

== TH FLOW =====================================================================
 Step      7 Time=  1.27000E-03 Dt=  6.40000E-04 [y] snes_conv_reason:   11
  newton =   1 [       7] linear =   113 [       738] cuts =  0 [   0]
  --> max chng: dpmx=   4.3641E-06 dtmpmx=   1.2044E-06

== TH FLOW =====================================================================
 Step      8 Time=  2.55000E-03 Dt=  1.28000E-03 [y] snes_conv_reason:   11
  newton =   1 [       8] linear =   120 [       858] cuts =  0 [   0]
  --> max chng: dpmx=   9.3849E-06 dtmpmx=   2.4087E-06

== TH FLOW =====================================================================
 Step      9 Time=  5.11000E-03 Dt=  2.56000E-03 [y] snes_conv_reason:   11
  newton =   1 [       9] linear =   116 [       974] cuts =  0 [   0]
  --> max chng: dpmx=   2.1389E-05 dtmpmx=   4.8175E-06

== TH FLOW =====================================================================
 Step     10 Time=  1.02300E-02 Dt=  5.12000E-03 [y] snes_conv_reason:   11
  newton =   1 [      10] linear =   117 [      1091] cuts =  0 [   0]
  --> max chng: dpmx=   5.3338E-05 dtmpmx=   9.6350E-06

== TH FLOW =====================================================================
 Step     11 Time=  2.04700E-02 Dt=  1.02400E-02 [y] snes_conv_reason:   11
  newton =   1 [      11] linear =   117 [      1208] cuts =  0 [   0]
  --> max chng: dpmx=   1.4817E-04 dtmpmx=   1.9270E-05

== TH FLOW =====================================================================
 Step     12 Time=  4.09500E-02 Dt=  2.04800E-02 [y] snes_conv_reason:   11
  newton =   1 [      12] linear =   119 [      1327] cuts =  0 [   0]
  --> max chng: dpmx=   4.5883E-04 dtmpmx=   3.8540E-05

== TH FLOW =====================================================================
 Step     13 Time=  8.19100E-02 Dt=  4.09600E-02 [y] snes_conv_reason:   11
  newton =   1 [      13] linear =   121 [      1448] cuts =  0 [   0]
  --> max chng: dpmx=   1.5397E-03 dtmpmx=   7.7080E-05

== TH FLOW =====================================================================
 Step     14 Time=  1.00000E-01 Dt=  1.80900E-02 [y] snes_conv_reason:   11
  newton =   1 [      14] linear =   121 [      1569] cuts =  0 [   0]
  --> max chng: dpmx=   8.0212E-04 dtmpmx=   3.4042E-05

== TH FLOW =====================================================================
 Step     15 Time=  1.50000E-01 Dt=  5.00000E-02 [y] snes_conv_reason:   11
  newton =   1 [      15] linear =   120 [      1689] cuts =  0 [   0]
  --> max chng: dpmx=   3.1005E-03 dtmpmx=   9.4092E-05

== TH FLOW =====================================================================
 Step     16 Time=  2.00000E-01 Dt=  5.00000E-02 [y] snes_conv_reason:   11
  newton =   1 [      16] linear =   120 [      1809] cuts =  0 [   0]
  --> max chng: dpmx=   3.9551E-03 dtmpmx=   9.4092E-05

== TH FLOW =====================================================================
 Step     17 Time=  2.50000E-01 Dt=  5.00000E-02 [y] snes_conv_reason:   11
  newton =   2 [      18] linear =   238 [      2047] cuts =  0 [   0]
  --> max chng: dpmx=   1.3225E+02 dtmpmx=   1.9835E+00

== TH FLOW =====================================================================
 Step     18 Time=  3.00000E-01 Dt=  5.00000E-02 [y] snes_conv_reason:   11
  newton =   2 [      20] linear =   240 [      2287] cuts =  0 [   0]
  --> max chng: dpmx=   1.8194E+00 dtmpmx=   7.6135E-01

== TH FLOW =====================================================================
 Step     19 Time=  3.50000E-01 Dt=  5.00000E-02 [y] snes_conv_reason:   11
  newton =   2 [      22] linear =   237 [      2524] cuts =  0 [   0]
  --> max chng: dpmx=   1.6957E+00 dtmpmx=   5.5025E-01

== TH FLOW =====================================================================
 Step     20 Time=  4.00000E-01 Dt=  5.00000E-02 [y] snes_conv_reason:   11
  newton =   2 [      24] linear =   239 [      2763] cuts =  0 [   0]
  --> max chng: dpmx=   1.6241E+00 dtmpmx=   4.4786E-01

== TH FLOW =====================================================================
 Step     21 Time=  4.50000E-01 Dt=  5.00000E-02 [y] snes_conv_reason:   11
  newton =   2 [      26] linear =   247 [      3010] cuts =  0 [   0]
  --> max chng: dpmx=   1.5672E+00 dtmpmx=   3.8385E-01

== TH FLOW =====================================================================
 Step     22 Time=  5.00000E-01 Dt=  5.00000E-02 [y] snes_conv_reason:   11
  newton =   2 [      28] linear =   242 [      3252] cuts =  0 [   0]
  --> max chng: dpmx=   1.5176E+00 dtmpmx=   3.3999E-01

== TH FLOW =====================================================================
 Step     23 Time=  5.50000E-01 Dt=  5.00000E-02 [y] snes_conv_reason:   11
  newton =   2 [      30] linear =   236 [      3488] cuts =  0 [   0]
  --> max chng: dpmx=   1.4721E+00 dtmpmx=   3.0637E-01

== TH FLOW =====================================================================
 Step     24 Time=  6.00000E-01 Dt=  5.00000E-02 [y] snes_conv_reason:    3
  newton =   1 [      31] linear =   120 [      3608] cuts =  0 [   0]
  --> max chng: dpmx=   1.4288E+00 dtmpmx=   2.8004E-01

== TH FLOW =====================================================================
 Step     25 Time=  6.50000E-01 Dt=  5.00000E-02 [y] snes_conv_reason:    3
  newton =   1 [      32] linear =   118 [      3726] cuts =  0 [   0]
  --> max chng: dpmx=   1.3885E+00 dtmpmx=   2.5873E-01

== TH FLOW =====================================================================
 Step     26 Time=  7.00000E-01 Dt=  5.00000E-02 [y] snes_conv_reason:    3
  newton =   1 [      33] linear =   110 [      3836] cuts =  0 [   0]
  --> max chng: dpmx=   1.3486E+00 dtmpmx=   2.4058E-01

== TH FLOW =====================================================================
 Step     27 Time=  7.50000E-01 Dt=  5.00000E-02 [y] snes_conv_reason:    3
  newton =   1 [      34] linear =   116 [      3952] cuts =  0 [   0]
  --> max chng: dpmx=   1.3105E+00 dtmpmx=   2.2520E-01

== TH FLOW =====================================================================
 Step     28 Time=  8.00000E-01 Dt=  5.00000E-02 [y] snes_conv_reason:    3
  newton =   1 [      35] linear =   118 [      4070] cuts =  0 [   0]
  --> max chng: dpmx=   1.2724E+00 dtmpmx=   2.1190E-01

== TH FLOW =====================================================================
 Step     29 Time=  8.50000E-01 Dt=  5.00000E-02 [y] snes_conv_reason:    3
  newton =   1 [      36] linear =   114 [      4184] cuts =  0 [   0]
  --> max chng: dpmx=   1.2354E+00 dtmpmx=   2.0005E-01

== TH FLOW =====================================================================
 Step     30 Time=  9.00000E-01 Dt=  5.00000E-02 [y] snes_conv_reason:    3
  newton =   1 [      37] linear =   113 [      4297] cuts =  0 [   0]
  --> max chng: dpmx=   1.1999E+00 dtmpmx=   1.8966E-01

== TH FLOW =====================================================================
 Step     31 Time=  9.50000E-01 Dt=  5.00000E-02 [y] snes_conv_reason:    3
  newton =   1 [      38] linear =   118 [      4415] cuts =  0 [   0]
  --> max chng: dpmx=   1.1634E+00 dtmpmx=   1.8035E-01

== TH FLOW =====================================================================
 Step     32 Time=  1.00000E+00 Dt=  5.00000E-02 [y] snes_conv_reason:    3
  newton =   1 [      39] linear =   113 [      4528] cuts =  0 [   0]
  --> max chng: dpmx=   1.1280E+00 dtmpmx=   1.7184E-01

== TH FLOW =====================================================================
 Step     33 Time=  1.05000E+00 Dt=  5.00000E-02 [y] snes_conv_reason:    3
  newton =   1 [      40] linear =   117 [      4645] cuts =  0 [   0]
  --> max chng: dpmx=   1.0934E+00 dtmpmx=   1.6425E-01

== TH FLOW =====================================================================
 Step     34 Time=  1.10000E+00 Dt=  5.00000E-02 [y] snes_conv_reason:    3
  newton =   1 [      41] linear =   108 [      4753] cuts =  0 [   0]
  --> max chng: dpmx=   1.0584E+00 dtmpmx=   1.5727E-01

== TH FLOW =====================================================================
 Step     35 Time=  1.15000E+00 Dt=  5.00000E-02 [y] snes_conv_reason:    3
  newton =   1 [      42] linear =   116 [      4869] cuts =  0 [   0]
  --> max chng: dpmx=   1.0248E+00 dtmpmx=   1.5080E-01

== TH FLOW =====================================================================
 Step     36 Time=  1.20000E+00 Dt=  5.00000E-02 [y] snes_conv_reason:   11
  newton =   1 [      43] linear =   117 [      4986] cuts =  0 [   0]
  --> max chng: dpmx=   9.9070E-01 dtmpmx=   1.4495E-01

== TH FLOW =====================================================================
 Step     37 Time=  1.25000E+00 Dt=  5.00000E-02 [y] snes_conv_reason:   11
  newton =   1 [      44] linear =   118 [      5104] cuts =  0 [   0]
  --> max chng: dpmx=   9.5707E-01 dtmpmx=   1.3949E-01

== TH FLOW =====================================================================
 Step     38 Time=  1.30000E+00 Dt=  5.00000E-02 [y] snes_conv_reason:   11
  newton =   1 [      45] linear =   119 [      5223] cuts =  0 [   0]
  --> max chng: dpmx=   9.2378E-01 dtmpmx=   1.3438E-01

== TH FLOW =====================================================================
 Step     39 Time=  1.35000E+00 Dt=  5.00000E-02 [y] snes_conv_reason:   11
  newton =   1 [      46] linear =   113 [      5336] cuts =  0 [   0]
  --> max chng: dpmx=   8.9078E-01 dtmpmx=   1.2971E-01

== TH FLOW =====================================================================
 Step     40 Time=  1.40000E+00 Dt=  5.00000E-02 [y] snes_conv_reason:   11
  newton =   1 [      47] linear =   113 [      5449] cuts =  0 [   0]
  --> max chng: dpmx=   8.5783E-01 dtmpmx=   1.2530E-01

== TH FLOW =====================================================================
 Step     41 Time=  1.45000E+00 Dt=  5.00000E-02 [y] snes_conv_reason:   11
  newton =   1 [      48] linear =   111 [      5560] cuts =  0 [   0]
  --> max chng: dpmx=   8.2509E-01 dtmpmx=   1.2115E-01

== TH FLOW =====================================================================
 Step     42 Time=  1.50000E+00 Dt=  5.00000E-02 [y] snes_conv_reason:   11
  newton =   1 [      49] linear =   111 [      5671] cuts =  0 [   0]
  --> max chng: dpmx=   7.9285E-01 dtmpmx=   1.1732E-01

== TH FLOW =====================================================================
 Step     43 Time=  1.55000E+00 Dt=  5.00000E-02 [y] snes_conv_reason:   11
  newton =   1 [      50] linear =   110 [      5781] cuts =  0 [   0]
  --> max chng: dpmx=   7.6040E-01 dtmpmx=   1.1368E-01

== TH FLOW =====================================================================
 Step     44 Time=  1.60000E+00 Dt=  5.00000E-02 [y] snes_conv_reason:   11
  newton =   1 [      51] linear =   115 [      5896] cuts =  0 [   0]
  --> max chng: dpmx=   7.2803E-01 dtmpmx=   1.1024E-01

== TH FLOW =====================================================================
 Step     45 Time=  1.65000E+00 Dt=  5.00000E-02 [y] snes_conv_reason:   11
  newton =   1 [      52] linear =   111 [      6007] cuts =  0 [   0]
  --> max chng: dpmx=   6.9622E-01 dtmpmx=   1.0703E-01

== TH FLOW =====================================================================
 Step     46 Time=  1.70000E+00 Dt=  5.00000E-02 [y] snes_conv_reason:   11
  newton =   1 [      53] linear =   113 [      6120] cuts =  0 [   0]
  --> max chng: dpmx=   7.1375E-01 dtmpmx=   1.0397E-01

== TH FLOW =====================================================================
 Step     47 Time=  1.75000E+00 Dt=  5.00000E-02 [y] snes_conv_reason:   11
  newton =   1 [      54] linear =   115 [      6235] cuts =  0 [   0]
  --> max chng: dpmx=   7.3522E-01 dtmpmx=   1.0107E-01

== TH FLOW =====================================================================
 Step     48 Time=  1.80000E+00 Dt=  5.00000E-02 [y] snes_conv_reason:   11
  newton =   1 [      55] linear =   108 [      6343] cuts =  0 [   0]
  --> max chng: dpmx=   7.5678E-01 dtmpmx=   9.8344E-02

== TH FLOW =====================================================================
 Step     49 Time=  1.85000E+00 Dt=  5.00000E-02 [y] snes_conv_reason:   11
  newton =   1 [      56] linear =   109 [      6452] cuts =  0 [   0]
  --> max chng: dpmx=   7.7854E-01 dtmpmx=   9.5727E-02

== TH FLOW =====================================================================
 Step     50 Time=  1.90000E+00 Dt=  5.00000E-02 [y] snes_conv_reason:   11
  newton =   1 [      57] linear =   117 [      6569] cuts =  0 [   0]
  --> max chng: dpmx=   8.0045E-01 dtmpmx=   9.3253E-02

== TH FLOW =====================================================================
 Step     51 Time=  1.95000E+00 Dt=  5.00000E-02 [y] snes_conv_reason:   11
  newton =   1 [      58] linear =   113 [      6682] cuts =  0 [   0]
  --> max chng: dpmx=   8.2235E-01 dtmpmx=   9.0908E-02

== TH FLOW =====================================================================
 Step     52 Time=  2.00000E+00 Dt=  5.00000E-02 [y] snes_conv_reason:   11
  newton =   1 [      59] linear =   115 [      6797] cuts =  0 [   0]
  --> max chng: dpmx=   8.4462E-01 dtmpmx=   8.8649E-02

== TH FLOW =====================================================================
 Step     53 Time=  2.05000E+00 Dt=  5.00000E-02 [y] snes_conv_reason:   11
  newton =   1 [      60] linear =   113 [      6910] cuts =  0 [   0]
  --> max chng: dpmx=   8.6673E-01 dtmpmx=   8.6513E-02

== TH FLOW =====================================================================
 Step     54 Time=  2.10000E+00 Dt=  5.00000E-02 [y] snes_conv_reason:   11
  newton =   1 [      61] linear =   110 [      7020] cuts =  0 [   0]
  --> max chng: dpmx=   8.8890E-01 dtmpmx=   8.4473E-02

== TH FLOW =====================================================================
 Step     55 Time=  2.15000E+00 Dt=  5.00000E-02 [y] snes_conv_reason:   11
  newton =   1 [      62] linear =   110 [      7130] cuts =  0 [   0]
  --> max chng: dpmx=   9.1132E-01 dtmpmx=   8.2503E-02

== TH FLOW =====================================================================
 Step     56 Time=  2.20000E+00 Dt=  5.00000E-02 [y] snes_conv_reason:   11
  newton =   1 [      63] linear =   109 [      7239] cuts =  0 [   0]
  --> max chng: dpmx=   9.3350E-01 dtmpmx=   8.0642E-02

== TH FLOW =====================================================================
 Step     57 Time=  2.25000E+00 Dt=  5.00000E-02 [y] snes_conv_reason:   11
  newton =   1 [      64] linear =   104 [      7343] cuts =  0 [   0]
  --> max chng: dpmx=   9.5608E-01 dtmpmx=   7.8852E-02

== TH FLOW =====================================================================
 Step     58 Time=  2.30000E+00 Dt=  5.00000E-02 [y] snes_conv_reason:   11
  newton =   1 [      65] linear =   108 [      7451] cuts =  0 [   0]
  --> max chng: dpmx=   9.7833E-01 dtmpmx=   7.7119E-02

== TH FLOW =====================================================================
 Step     59 Time=  2.35000E+00 Dt=  5.00000E-02 [y] snes_conv_reason:    3
  newton =   1 [      66] linear =   104 [      7555] cuts =  0 [   0]
  --> max chng: dpmx=   1.0007E+00 dtmpmx=   7.5484E-02

== TH FLOW =====================================================================
 Step     60 Time=  2.40000E+00 Dt=  5.00000E-02 [y] snes_conv_reason:    3
  newton =   1 [      67] linear =   106 [      7661] cuts =  0 [   0]
  --> max chng: dpmx=   1.0227E+00 dtmpmx=   7.3902E-02

== TH FLOW =====================================================================
 Step     61 Time=  2.45000E+00 Dt=  5.00000E-02 [y] snes_conv_reason:    3
  newton =   1 [      68] linear =   108 [      7769] cuts =  0 [   0]
  --> max chng: dpmx=   1.0446E+00 dtmpmx=   7.2368E-02

== TH FLOW =====================================================================
 Step     62 Time=  2.50000E+00 Dt=  5.00000E-02 [y] snes_conv_reason:    3
  newton =   1 [      69] linear =   105 [      7874] cuts =  0 [   0]
  --> max chng: dpmx=   1.0664E+00 dtmpmx=   7.0920E-02

== TH FLOW =====================================================================
 Step     63 Time=  2.55000E+00 Dt=  5.00000E-02 [y] snes_conv_reason:    3
  newton =   1 [      70] linear =   108 [      7982] cuts =  0 [   0]
  --> max chng: dpmx=   1.0874E+00 dtmpmx=   6.9512E-02

== TH FLOW =====================================================================
 Step     64 Time=  2.60000E+00 Dt=  5.00000E-02 [y] snes_conv_reason:    3
  newton =   1 [      71] linear =   108 [      8090] cuts =  0 [   0]
  --> max chng: dpmx=   1.1080E+00 dtmpmx=   6.8150E-02

== TH FLOW =====================================================================
 Step     65 Time=  2.65000E+00 Dt=  5.00000E-02 [y] snes_conv_reason:    3
  newton =   1 [      72] linear =   114 [      8204] cuts =  0 [   0]
  --> max chng: dpmx=   1.1276E+00 dtmpmx=   6.6856E-02

== TH FLOW =====================================================================
 Step     66 Time=  2.70000E+00 Dt=  5.00000E-02 [y] snes_conv_reason:    3
  newton =   1 [      73] linear =   102 [      8306] cuts =  0 [   0]
  --> max chng: dpmx=   1.1462E+00 dtmpmx=   6.5595E-02

== TH FLOW =====================================================================
 Step     67 Time=  2.75000E+00 Dt=  5.00000E-02 [y] snes_conv_reason:    3
  newton =   1 [      74] linear =   103 [      8409] cuts =  0 [   0]
  --> max chng: dpmx=   1.1631E+00 dtmpmx=   6.4378E-02

== TH FLOW =====================================================================
 Step     68 Time=  2.80000E+00 Dt=  5.00000E-02 [y] snes_conv_reason:    3
  newton =   1 [      75] linear =   109 [      8518] cuts =  0 [   0]
  --> max chng: dpmx=   1.1785E+00 dtmpmx=   6.3215E-02

== TH FLOW =====================================================================
 Step     69 Time=  2.85000E+00 Dt=  5.00000E-02 [y] snes_conv_reason:    3
  newton =   1 [      76] linear =   111 [      8629] cuts =  0 [   0]
  --> max chng: dpmx=   1.1911E+00 dtmpmx=   6.2080E-02

== TH FLOW =====================================================================
 Step     70 Time=  2.90000E+00 Dt=  5.00000E-02 [y] snes_conv_reason:    3
  newton =   1 [      77] linear =   111 [      8740] cuts =  0 [   0]
  --> max chng: dpmx=   1.2014E+00 dtmpmx=   6.0987E-02

== TH FLOW =====================================================================
 Step     71 Time=  2.95000E+00 Dt=  5.00000E-02 [y] snes_conv_reason:    3
  newton =   1 [      78] linear =   107 [      8847] cuts =  0 [   0]
  --> max chng: dpmx=   1.2078E+00 dtmpmx=   5.9937E-02

== TH FLOW =====================================================================
 Step     72 Time=  3.00000E+00 Dt=  5.00000E-02 [y] snes_conv_reason:    3
  newton =   1 [      79] linear =   106 [      8953] cuts =  0 [   0]
  --> max chng: dpmx=   1.2110E+00 dtmpmx=   5.8910E-02

== TH FLOW =====================================================================
 Step     73 Time=  3.05000E+00 Dt=  5.00000E-02 [y] snes_conv_reason:    3
  newton =   1 [      80] linear =   109 [      9062] cuts =  0 [   0]
  --> max chng: dpmx=   1.2096E+00 dtmpmx=   5.7924E-02

== TH FLOW =====================================================================
 Step     74 Time=  3.10000E+00 Dt=  5.00000E-02 [y] snes_conv_reason:    3
  newton =   1 [      81] linear =   104 [      9166] cuts =  0 [   0]
  --> max chng: dpmx=   1.2029E+00 dtmpmx=   5.6971E-02

== TH FLOW =====================================================================
 Step     75 Time=  3.15000E+00 Dt=  5.00000E-02 [y] snes_conv_reason:    3
  newton =   1 [      82] linear =   106 [      9272] cuts =  0 [   0]
  --> max chng: dpmx=   1.1914E+00 dtmpmx=   5.6038E-02

== TH FLOW =====================================================================
 Step     76 Time=  3.20000E+00 Dt=  5.00000E-02 [y] snes_conv_reason:    3
  newton =   1 [      83] linear =   112 [      9384] cuts =  0 [   0]
  --> max chng: dpmx=   1.1740E+00 dtmpmx=   5.5145E-02

== TH FLOW =====================================================================
 Step     77 Time=  3.25000E+00 Dt=  5.00000E-02 [y] snes_conv_reason:    3
  newton =   1 [      84] linear =   108 [      9492] cuts =  0 [   0]
  --> max chng: dpmx=   1.1508E+00 dtmpmx=   5.4276E-02

== TH FLOW =====================================================================
 Step     78 Time=  3.30000E+00 Dt=  5.00000E-02 [y] snes_conv_reason:    3
  newton =   1 [      85] linear =   113 [      9605] cuts =  0 [   0]
  --> max chng: dpmx=   1.1213E+00 dtmpmx=   5.3424E-02

== TH FLOW =====================================================================
 Step     79 Time=  3.35000E+00 Dt=  5.00000E-02 [y] snes_conv_reason:    3
  newton =   1 [      86] linear =   112 [      9717] cuts =  0 [   0]
  --> max chng: dpmx=   1.0856E+00 dtmpmx=   5.2612E-02

== TH FLOW =====================================================================
 Step     80 Time=  3.40000E+00 Dt=  5.00000E-02 [y] snes_conv_reason:    3
  newton =   1 [      87] linear =   113 [      9830] cuts =  0 [   0]
  --> max chng: dpmx=   1.0446E+00 dtmpmx=   5.1817E-02

== TH FLOW =====================================================================
 Step     81 Time=  3.45000E+00 Dt=  5.00000E-02 [y] snes_conv_reason:   11
  newton =   1 [      88] linear =   114 [      9944] cuts =  0 [   0]
  --> max chng: dpmx=   9.9776E-01 dtmpmx=   5.1039E-02

== TH FLOW =====================================================================
 Step     82 Time=  3.50000E+00 Dt=  5.00000E-02 [y] snes_conv_reason:   11
  newton =   1 [      89] linear =   113 [     10057] cuts =  0 [   0]
  --> max chng: dpmx=   9.4632E-01 dtmpmx=   5.0295E-02

== TH FLOW =====================================================================
 Step     83 Time=  3.55000E+00 Dt=  5.00000E-02 [y] snes_conv_reason:   11
  newton =   1 [      90] linear =   111 [     10168] cuts =  0 [   0]
  --> max chng: dpmx=   8.9055E-01 dtmpmx=   4.9565E-02

== TH FLOW =====================================================================
 Step     84 Time=  3.60000E+00 Dt=  5.00000E-02 [y] snes_conv_reason:   11
  newton =   1 [      91] linear =   111 [     10279] cuts =  0 [   0]
  --> max chng: dpmx=   8.3176E-01 dtmpmx=   4.8853E-02

== TH FLOW =====================================================================
 Step     85 Time=  3.65000E+00 Dt=  5.00000E-02 [y] snes_conv_reason:   11
  newton =   1 [      92] linear =   111 [     10390] cuts =  0 [   0]
  --> max chng: dpmx=   7.7049E-01 dtmpmx=   4.8169E-02

== TH FLOW =====================================================================
 Step     86 Time=  3.70000E+00 Dt=  5.00000E-02 [y] snes_conv_reason:   11
  newton =   1 [      93] linear =   109 [     10499] cuts =  0 [   0]
  --> max chng: dpmx=   7.0790E-01 dtmpmx=   4.7495E-02

== TH FLOW =====================================================================
 Step     87 Time=  3.75000E+00 Dt=  5.00000E-02 [y] snes_conv_reason:   11
  newton =   1 [      94] linear =   114 [     10613] cuts =  0 [   0]
  --> max chng: dpmx=   6.4502E-01 dtmpmx=   4.6495E-02

== TH FLOW =====================================================================
 Step     88 Time=  3.80000E+00 Dt=  5.00000E-02 [y] snes_conv_reason:   11
  newton =   1 [      95] linear =   116 [     10729] cuts =  0 [   0]
  --> max chng: dpmx=   5.8287E-01 dtmpmx=   4.4969E-02

== TH FLOW =====================================================================
 Step     89 Time=  3.85000E+00 Dt=  5.00000E-02 [y] snes_conv_reason:   11
  newton =   1 [      96] linear =   117 [     10846] cuts =  0 [   0]
  --> max chng: dpmx=   5.2212E-01 dtmpmx=   4.3116E-02

== TH FLOW =====================================================================
 Step     90 Time=  3.90000E+00 Dt=  5.00000E-02 [y] snes_conv_reason:   11
  newton =   1 [      97] linear =   115 [     10961] cuts =  0 [   0]
  --> max chng: dpmx=   4.6380E-01 dtmpmx=   4.0851E-02

== TH FLOW =====================================================================
 Step     91 Time=  3.95000E+00 Dt=  5.00000E-02 [y] snes_conv_reason:   11
  newton =   1 [      98] linear =   117 [     11078] cuts =  0 [   0]
  --> max chng: dpmx=   4.0835E-01 dtmpmx=   3.8256E-02

== TH FLOW =====================================================================
 Step     92 Time=  4.00000E+00 Dt=  5.00000E-02 [y] snes_conv_reason:   11
  newton =   1 [      99] linear =   119 [     11197] cuts =  0 [   0]
  --> max chng: dpmx=   3.5669E-01 dtmpmx=   3.5420E-02

== TH FLOW =====================================================================
 Step     93 Time=  4.05000E+00 Dt=  5.00000E-02 [y] snes_conv_reason:   11
  newton =   1 [     100] linear =   120 [     11317] cuts =  0 [   0]
  --> max chng: dpmx=   3.0876E-01 dtmpmx=   3.2432E-02

== TH FLOW =====================================================================
 Step     94 Time=  4.10000E+00 Dt=  5.00000E-02 [y] snes_conv_reason:   11
  newton =   1 [     101] linear =   120 [     11437] cuts =  0 [   0]
  --> max chng: dpmx=   2.6495E-01 dtmpmx=   2.9375E-02

== TH FLOW =====================================================================
 Step     95 Time=  4.15000E+00 Dt=  5.00000E-02 [y] snes_conv_reason:   11
  newton =   1 [     102] linear =   118 [     11555] cuts =  0 [   0]
  --> max chng: dpmx=   2.2560E-01 dtmpmx=   2.6326E-02

== TH FLOW =====================================================================
 Step     96 Time=  4.20000E+00 Dt=  5.00000E-02 [y] snes_conv_reason:   11
  newton =   1 [     103] linear =   121 [     11676] cuts =  0 [   0]
  --> max chng: dpmx=   1.9036E-01 dtmpmx=   2.3351E-02

== TH FLOW =====================================================================
 Step     97 Time=  4.25000E+00 Dt=  5.00000E-02 [y] snes_conv_reason:   11
  newton =   1 [     104] linear =   120 [     11796] cuts =  0 [   0]
  --> max chng: dpmx=   1.5936E-01 dtmpmx=   2.0503E-02

== TH FLOW =====================================================================
 Step     98 Time=  4.30000E+00 Dt=  5.00000E-02 [y] snes_conv_reason:   11
  newton =   1 [     105] linear =   123 [     11919] cuts =  0 [   0]
  --> max chng: dpmx=   1.3230E-01 dtmpmx=   1.7826E-02

== TH FLOW =====================================================================
 Step     99 Time=  4.35000E+00 Dt=  5.00000E-02 [y] snes_conv_reason:   11
  newton =   1 [     106] linear =   122 [     12041] cuts =  0 [   0]
  --> max chng: dpmx=   1.0892E-01 dtmpmx=   1.5349E-02

== TH FLOW =====================================================================
 Step    100 Time=  4.40000E+00 Dt=  5.00000E-02 [y] snes_conv_reason:   11
  newton =   1 [     107] linear =   119 [     12160] cuts =  0 [   0]
  --> max chng: dpmx=   8.8903E-02 dtmpmx=   1.3092E-02

== TH FLOW =====================================================================
 Step    101 Time=  4.45000E+00 Dt=  5.00000E-02 [y] snes_conv_reason:   11
  newton =   1 [     108] linear =   122 [     12282] cuts =  0 [   0]
  --> max chng: dpmx=   7.2016E-02 dtmpmx=   1.1064E-02

== TH FLOW =====================================================================
 Step    102 Time=  4.50000E+00 Dt=  5.00000E-02 [y] snes_conv_reason:   11
  newton =   1 [     109] linear =   122 [     12404] cuts =  0 [   0]
  --> max chng: dpmx=   5.7843E-02 dtmpmx=   9.2646E-03

== TH FLOW =====================================================================
 Step    103 Time=  4.55000E+00 Dt=  5.00000E-02 [y] snes_conv_reason:   11
  newton =   1 [     110] linear =   122 [     12526] cuts =  0 [   0]
  --> max chng: dpmx=   4.6084E-02 dtmpmx=   7.6886E-03

== TH FLOW =====================================================================
 Step    104 Time=  4.60000E+00 Dt=  5.00000E-02 [y] snes_conv_reason:   11
  newton =   1 [     111] linear =   123 [     12649] cuts =  0 [   0]
  --> max chng: dpmx=   3.6405E-02 dtmpmx=   6.3243E-03

== TH FLOW =====================================================================
 Step    105 Time=  4.65000E+00 Dt=  5.00000E-02 [y] snes_conv_reason:   11
  newton =   1 [     112] linear =   120 [     12769] cuts =  0 [   0]
  --> max chng: dpmx=   2.8524E-02 dtmpmx=   5.1566E-03

== TH FLOW =====================================================================
 Step    106 Time=  4.70000E+00 Dt=  5.00000E-02 [y] snes_conv_reason:   11
  newton =   1 [     113] linear =   122 [     12891] cuts =  0 [   0]
  --> max chng: dpmx=   2.2152E-02 dtmpmx=   4.1679E-03

== TH FLOW =====================================================================
 Step    107 Time=  4.75000E+00 Dt=  5.00000E-02 [y] snes_conv_reason:   11
  newton =   1 [     114] linear =   123 [     13014] cuts =  0 [   0]
  --> max chng: dpmx=   1.7048E-02 dtmpmx=   3.3394E-03

== TH FLOW =====================================================================
 Step    108 Time=  4.80000E+00 Dt=  5.00000E-02 [y] snes_conv_reason:   11
  newton =   1 [     115] linear =   127 [     13141] cuts =  0 [   0]
  --> max chng: dpmx=   1.3007E-02 dtmpmx=   2.6522E-03

== TH FLOW =====================================================================
 Step    109 Time=  4.85000E+00 Dt=  5.00000E-02 [y] snes_conv_reason:   11
  newton =   1 [     116] linear =   123 [     13264] cuts =  0 [   0]
  --> max chng: dpmx=   9.8192E-03 dtmpmx=   2.0877E-03

== TH FLOW =====================================================================
 Step    110 Time=  4.90000E+00 Dt=  5.00000E-02 [y] snes_conv_reason:   11
  newton =   1 [     117] linear =   123 [     13387] cuts =  0 [   0]
  --> max chng: dpmx=   7.3360E-03 dtmpmx=   1.6284E-03

== TH FLOW =====================================================================
 Step    111 Time=  4.95000E+00 Dt=  5.00000E-02 [y] snes_conv_reason:   11
  newton =   1 [     118] linear =   124 [     13511] cuts =  0 [   0]
  --> max chng: dpmx=   5.4153E-03 dtmpmx=   1.2580E-03

== TH FLOW =====================================================================
 Step    112 Time=  5.00000E+00 Dt=  5.00000E-02 [y] snes_conv_reason:   11
  newton =   1 [     119] linear =   126 [     13637] cuts =  0 [   0]
  --> max chng: dpmx=   3.9459E-03 dtmpmx=   9.6200E-04

== TH FLOW =====================================================================
 Step    113 Time=  5.05000E+00 Dt=  5.00000E-02 [y] snes_conv_reason:   11
  newton =   1 [     120] linear =   122 [     13759] cuts =  0 [   0]
  --> max chng: dpmx=   2.8316E-03 dtmpmx=   7.2750E-04

== TH FLOW =====================================================================
 Step    114 Time=  5.10000E+00 Dt=  5.00000E-02 [y] snes_conv_reason:   11
  newton =   1 [     121] linear =   121 [     13880] cuts =  0 [   0]
  --> max chng: dpmx=   1.9963E-03 dtmpmx=   5.4329E-04

== TH FLOW =====================================================================
 Step    115 Time=  5.15000E+00 Dt=  5.00000E-02 [y] snes_conv_reason:   11
  newton =   1 [     122] linear =   122 [     14002] cuts =  0 [   0]
  --> max chng: dpmx=   1.3776E-03 dtmpmx=   3.9977E-04

== TH FLOW =====================================================================
 Step    116 Time=  5.20000E+00 Dt=  5.00000E-02 [y] snes_conv_reason:   11
  newton =   1 [     123] linear =   124 [     14126] cuts =  0 [   0]
  --> max chng: dpmx=   1.2757E-03 dtmpmx=   2.8884E-04

== TH FLOW =====================================================================
 Step    117 Time=  5.25000E+00 Dt=  5.00000E-02 [y] snes_conv_reason:   11
  newton =   1 [     124] linear =   123 [     14249] cuts =  0 [   0]
  --> max chng: dpmx=   1.4439E-03 dtmpmx=   2.0376E-04

== TH FLOW =====================================================================
 Step    118 Time=  5.30000E+00 Dt=  5.00000E-02 [y] snes_conv_reason:   11
  newton =   1 [     125] linear =   120 [     14369] cuts =  0 [   0]
  --> max chng: dpmx=   1.5678E-03 dtmpmx=   1.3900E-04

== TH FLOW =====================================================================
 Step    119 Time=  5.35000E+00 Dt=  5.00000E-02 [y] snes_conv_reason:   11
  newton =   1 [     126] linear =   118 [     14487] cuts =  0 [   0]
  --> max chng: dpmx=   1.6557E-03 dtmpmx=   9.0066E-05

== TH FLOW =====================================================================
 Step    120 Time=  5.40000E+00 Dt=  5.00000E-02 [y] snes_conv_reason:   11
  newton =   1 [     127] linear =   113 [     14600] cuts =  0 [   0]
  --> max chng: dpmx=   1.7148E-03 dtmpmx=   5.3348E-05

== TH FLOW =====================================================================
 Step    121 Time=  5.45000E+00 Dt=  5.00000E-02 [y] snes_conv_reason:   11
  newton =   1 [     128] linear =   113 [     14713] cuts =  0 [   0]
  --> max chng: dpmx=   1.7510E-03 dtmpmx=   4.9356E-05

== TH FLOW =====================================================================
 Step    122 Time=  5.50000E+00 Dt=  5.00000E-02 [y] snes_conv_reason:   11
  newton =   1 [     129] linear =   109 [     14822] cuts =  0 [   0]
  --> max chng: dpmx=   1.7696E-03 dtmpmx=   4.9191E-05

== TH FLOW =====================================================================
 Step    123 Time=  5.55000E+00 Dt=  5.00000E-02 [y] snes_conv_reason:   11
  newton =   1 [     130] linear =   106 [     14928] cuts =  0 [   0]
  --> max chng: dpmx=   1.7740E-03 dtmpmx=   4.9023E-05

== TH FLOW =====================================================================
 Step    124 Time=  5.60000E+00 Dt=  5.00000E-02 [y] snes_conv_reason:   11
  newton =   1 [     131] linear =   111 [     15039] cuts =  0 [   0]
  --> max chng: dpmx=   1.7671E-03 dtmpmx=   4.8853E-05

== TH FLOW =====================================================================
 Step    125 Time=  5.65000E+00 Dt=  5.00000E-02 [y] snes_conv_reason:   11
  newton =   1 [     132] linear =   109 [     15148] cuts =  0 [   0]
  --> max chng: dpmx=   1.7520E-03 dtmpmx=   4.8680E-05

== TH FLOW =====================================================================
 Step    126 Time=  5.70000E+00 Dt=  5.00000E-02 [y] snes_conv_reason:   11
  newton =   1 [     133] linear =   109 [     15257] cuts =  0 [   0]
  --> max chng: dpmx=   1.7297E-03 dtmpmx=   4.8505E-05

== TH FLOW =====================================================================
 Step    127 Time=  5.75000E+00 Dt=  5.00000E-02 [y] snes_conv_reason:   11
  newton =   1 [     134] linear =   107 [     15364] cuts =  0 [   0]
  --> max chng: dpmx=   1.7021E-03 dtmpmx=   4.8325E-05

== TH FLOW =====================================================================
 Step    128 Time=  5.80000E+00 Dt=  5.00000E-02 [y] snes_conv_reason:   11
  newton =   1 [     135] linear =   101 [     15465] cuts =  0 [   0]
  --> max chng: dpmx=   1.6698E-03 dtmpmx=   4.8144E-05

== TH FLOW =====================================================================
 Step    129 Time=  5.85000E+00 Dt=  5.00000E-02 [y] snes_conv_reason:   11
  newton =   1 [     136] linear =   106 [     15571] cuts =  0 [   0]
  --> max chng: dpmx=   1.6335E-03 dtmpmx=   4.7959E-05

== TH FLOW =====================================================================
 Step    130 Time=  5.87500E+00 Dt=  2.50000E-02 [y] snes_conv_reason:   11
  newton =   1 [     137] linear =   127 [     15698] cuts =  1 [   1]
  --> max chng: dpmx=   8.0740E-04 dtmpmx=   2.3941E-05

== TH FLOW =====================================================================
 Step    131 Time=  5.90000E+00 Dt=  2.50000E-02 [y] snes_conv_reason:   11
  newton =   1 [     138] linear =   103 [     15801] cuts =  0 [   1]
  --> max chng: dpmx=   7.9770E-04 dtmpmx=   2.3901E-05

== TH FLOW =====================================================================
 Step    132 Time=  5.92500E+00 Dt=  2.50000E-02 [y] snes_conv_reason:   11
  newton =   1 [     139] linear =    96 [     15897] cuts =  0 [   1]
  --> max chng: dpmx=   7.8735E-04 dtmpmx=   2.3862E-05

== TH FLOW =====================================================================
 Step    133 Time=  5.95000E+00 Dt=  2.50000E-02 [y] snes_conv_reason:   11
  newton =   1 [     140] linear =   101 [     15998] cuts =  0 [   1]
  --> max chng: dpmx=   7.7689E-04 dtmpmx=   2.3823E-05

== TH FLOW =====================================================================
 Step    134 Time=  5.97500E+00 Dt=  2.50000E-02 [y] snes_conv_reason:   11
  newton =   1 [     141] linear =   105 [     16103] cuts =  0 [   1]
  --> max chng: dpmx=   7.6603E-04 dtmpmx=   2.3782E-05

== TH FLOW =====================================================================
 Step    135 Time=  6.00000E+00 Dt=  2.50000E-02 [y] snes_conv_reason:   11
  newton =   1 [     142] linear =   103 [     16206] cuts =  0 [   1]
  --> max chng: dpmx=   7.5492E-04 dtmpmx=   2.3742E-05

== TH FLOW =====================================================================
 Step    136 Time=  6.05000E+00 Dt=  5.00000E-02 [y] snes_conv_reason:   11
  newton =   1 [     143] linear =   103 [     16309] cuts =  0 [   1]
  --> max chng: dpmx=   1.4626E-03 dtmpmx=   4.7287E-05

== TH FLOW =====================================================================
 Step    137 Time=  6.10000E+00 Dt=  5.00000E-02 [y] snes_conv_reason:   11
  newton =   1 [     144] linear =    99 [     16408] cuts =  0 [   1]
  --> max chng: dpmx=   1.4139E-03 dtmpmx=   4.7089E-05

== TH FLOW =====================================================================
 Step    138 Time=  6.15000E+00 Dt=  5.00000E-02 [y] snes_conv_reason:   11
  newton =   1 [     145] linear =   106 [     16514] cuts =  0 [   1]
  --> max chng: dpmx=   1.3634E-03 dtmpmx=   4.6886E-05

== TH FLOW =====================================================================
 Step    139 Time=  6.20000E+00 Dt=  5.00000E-02 [y] snes_conv_reason:   11
  newton =   1 [     146] linear =   103 [     16617] cuts =  0 [   1]
  --> max chng: dpmx=   1.3114E-03 dtmpmx=   4.6619E-05

== TH FLOW =====================================================================
 Step    140 Time=  6.25000E+00 Dt=  5.00000E-02 [y] snes_conv_reason:   11
  newton =   1 [     147] linear =   106 [     16723] cuts =  0 [   1]
  --> max chng: dpmx=   1.2583E-03 dtmpmx=   4.6223E-05

== TH FLOW =====================================================================
 Step    141 Time=  6.30000E+00 Dt=  5.00000E-02 [y] snes_conv_reason:   11
  newton =   1 [     148] linear =   105 [     16828] cuts =  0 [   1]
  --> max chng: dpmx=   1.2046E-03 dtmpmx=   4.5705E-05

== TH FLOW =====================================================================
 Step    142 Time=  6.35000E+00 Dt=  5.00000E-02 [y] snes_conv_reason:   11
  newton =   1 [     149] linear =   109 [     16937] cuts =  0 [   1]
  --> max chng: dpmx=   1.1500E-03 dtmpmx=   4.5070E-05

== TH FLOW =====================================================================
 Step    143 Time=  6.40000E+00 Dt=  5.00000E-02 [y] snes_conv_reason:   11
  newton =   1 [     150] linear =   110 [     17047] cuts =  0 [   1]
  --> max chng: dpmx=   1.0948E-03 dtmpmx=   4.4323E-05

== TH FLOW =====================================================================
 Step    144 Time=  6.45000E+00 Dt=  5.00000E-02 [y] snes_conv_reason:   11
  newton =   1 [     151] linear =   109 [     17156] cuts =  0 [   1]
  --> max chng: dpmx=   1.0396E-03 dtmpmx=   4.3466E-05

== TH FLOW =====================================================================
 Step    145 Time=  6.50000E+00 Dt=  5.00000E-02 [y] snes_conv_reason:   11
  newton =   1 [     152] linear =   112 [     17268] cuts =  0 [   1]
  --> max chng: dpmx=   9.8443E-04 dtmpmx=   4.2503E-05

== TH FLOW =====================================================================
 Step    146 Time=  6.55000E+00 Dt=  5.00000E-02 [y] snes_conv_reason:   11
  newton =   1 [     153] linear =   112 [     17380] cuts =  0 [   1]
  --> max chng: dpmx=   9.2939E-04 dtmpmx=   4.1438E-05

== TH FLOW =====================================================================
 Step    147 Time=  6.60000E+00 Dt=  5.00000E-02 [y] snes_conv_reason:   11
  newton =   1 [     154] linear =   105 [     17485] cuts =  0 [   1]
  --> max chng: dpmx=   8.7506E-04 dtmpmx=   4.0292E-05

== TH FLOW =====================================================================
 Step    148 Time=  6.65000E+00 Dt=  5.00000E-02 [y] snes_conv_reason:   11
  newton =   1 [     155] linear =   114 [     17599] cuts =  0 [   1]
  --> max chng: dpmx=   8.2096E-04 dtmpmx=   3.9075E-05

== TH FLOW =====================================================================
 Step    149 Time=  6.70000E+00 Dt=  5.00000E-02 [y] snes_conv_reason:   11
  newton =   1 [     156] linear =   116 [     17715] cuts =  0 [   1]
  --> max chng: dpmx=   7.6824E-04 dtmpmx=   3.7772E-05

== TH FLOW =====================================================================
 Step    150 Time=  6.75000E+00 Dt=  5.00000E-02 [y] snes_conv_reason:   11
  newton =   1 [     157] linear =   114 [     17829] cuts =  0 [   1]
  --> max chng: dpmx=   7.1643E-04 dtmpmx=   3.6391E-05

== TH FLOW =====================================================================
 Step    151 Time=  6.80000E+00 Dt=  5.00000E-02 [y] snes_conv_reason:   11
  newton =   1 [     158] linear =   114 [     17943] cuts =  0 [   1]
  --> max chng: dpmx=   6.6610E-04 dtmpmx=   3.4940E-05

== TH FLOW =====================================================================
 Step    152 Time=  6.85000E+00 Dt=  5.00000E-02 [y] snes_conv_reason:   11
  newton =   1 [     159] linear =   117 [     18060] cuts =  0 [   1]
  --> max chng: dpmx=   6.1729E-04 dtmpmx=   3.3429E-05

== TH FLOW =====================================================================
 Step    153 Time=  6.90000E+00 Dt=  5.00000E-02 [y] snes_conv_reason:   11
  newton =   1 [     160] linear =   112 [     18172] cuts =  0 [   1]
  --> max chng: dpmx=   5.7001E-04 dtmpmx=   3.1869E-05

== TH FLOW =====================================================================
 Step    154 Time=  6.95000E+00 Dt=  5.00000E-02 [y] snes_conv_reason:   11
  newton =   1 [     161] linear =   112 [     18284] cuts =  0 [   1]
  --> max chng: dpmx=   5.2461E-04 dtmpmx=   3.0269E-05

== TH FLOW =====================================================================
 Step    155 Time=  7.00000E+00 Dt=  5.00000E-02 [y] snes_conv_reason:   11
  newton =   1 [     162] linear =   116 [     18400] cuts =  0 [   1]
  --> max chng: dpmx=   4.8119E-04 dtmpmx=   2.8642E-05

== TH FLOW =====================================================================
 Step    156 Time=  7.05000E+00 Dt=  5.00000E-02 [y] snes_conv_reason:   11
  newton =   1 [     163] linear =   117 [     18517] cuts =  0 [   1]
  --> max chng: dpmx=   4.3981E-04 dtmpmx=   2.6999E-05

== TH FLOW =====================================================================
 Step    157 Time=  7.10000E+00 Dt=  5.00000E-02 [y] snes_conv_reason:   11
  newton =   1 [     164] linear =   115 [     18632] cuts =  0 [   1]
  --> max chng: dpmx=   4.0049E-04 dtmpmx=   2.5350E-05

== TH FLOW =====================================================================
 Step    158 Time=  7.15000E+00 Dt=  5.00000E-02 [y] snes_conv_reason:   11
  newton =   1 [     165] linear =   117 [     18749] cuts =  0 [   1]
  --> max chng: dpmx=   3.6345E-04 dtmpmx=   2.3708E-05

== TH FLOW =====================================================================
 Step    159 Time=  7.20000E+00 Dt=  5.00000E-02 [y] snes_conv_reason:   11
  newton =   1 [     166] linear =   118 [     18867] cuts =  0 [   1]
  --> max chng: dpmx=   3.2855E-04 dtmpmx=   2.2084E-05

== TH FLOW =====================================================================
 Step    160 Time=  7.25000E+00 Dt=  5.00000E-02 [y] snes_conv_reason:   11
  newton =   1 [     167] linear =   115 [     18982] cuts =  0 [   1]
  --> max chng: dpmx=   2.9598E-04 dtmpmx=   2.0487E-05

== TH FLOW =====================================================================
 Step    161 Time=  7.30000E+00 Dt=  5.00000E-02 [y] snes_conv_reason:   11
  newton =   1 [     168] linear =   120 [     19102] cuts =  0 [   1]
  --> max chng: dpmx=   2.6553E-04 dtmpmx=   1.8927E-05

== TH FLOW =====================================================================
 Step    162 Time=  7.35000E+00 Dt=  5.00000E-02 [y] snes_conv_reason:   11
  newton =   1 [     169] linear =   117 [     19219] cuts =  0 [   1]
  --> max chng: dpmx=   2.3733E-04 dtmpmx=   1.7413E-05

== TH FLOW =====================================================================
 Step    163 Time=  7.40000E+00 Dt=  5.00000E-02 [y] snes_conv_reason:   11
  newton =   1 [     170] linear =   128 [     19347] cuts =  0 [   1]
  --> max chng: dpmx=   2.1134E-04 dtmpmx=   1.5953E-05

== TH FLOW =====================================================================
 Step    164 Time=  7.45000E+00 Dt=  5.00000E-02 [y] snes_conv_reason:   11
  newton =   1 [     171] linear =   115 [     19462] cuts =  0 [   1]
  --> max chng: dpmx=   1.8738E-04 dtmpmx=   1.4554E-05

== TH FLOW =====================================================================
 Step    165 Time=  7.50000E+00 Dt=  5.00000E-02 [y] snes_conv_reason:   11
  newton =   1 [     172] linear =   118 [     19580] cuts =  0 [   1]
  --> max chng: dpmx=   1.6556E-04 dtmpmx=   1.3220E-05

== TH FLOW =====================================================================
 Step    166 Time=  7.55000E+00 Dt=  5.00000E-02 [y] snes_conv_reason:   11
  newton =   1 [     173] linear =   119 [     19699] cuts =  0 [   1]
  --> max chng: dpmx=   1.4562E-04 dtmpmx=   1.1956E-05

== TH FLOW =====================================================================
 Step    167 Time=  7.60000E+00 Dt=  5.00000E-02 [y] snes_conv_reason:   11
  newton =   1 [     174] linear =   119 [     19818] cuts =  0 [   1]
  --> max chng: dpmx=   1.2756E-04 dtmpmx=   1.0766E-05

== TH FLOW =====================================================================
 Step    168 Time=  7.65000E+00 Dt=  5.00000E-02 [y] snes_conv_reason:   11
  newton =   1 [     175] linear =   118 [     19936] cuts =  0 [   1]
  --> max chng: dpmx=   1.1127E-04 dtmpmx=   9.6520E-06

== TH FLOW =====================================================================
 Step    169 Time=  7.70000E+00 Dt=  5.00000E-02 [y] snes_conv_reason:   11
  newton =   1 [     176] linear =   118 [     20054] cuts =  0 [   1]
  --> max chng: dpmx=   9.6677E-05 dtmpmx=   8.6146E-06

== TH FLOW =====================================================================
 Step    170 Time=  7.75000E+00 Dt=  5.00000E-02 [y] snes_conv_reason:   11
  newton =   1 [     177] linear =   120 [     20174] cuts =  0 [   1]
  --> max chng: dpmx=   8.3587E-05 dtmpmx=   7.6543E-06

== TH FLOW =====================================================================
 Step    171 Time=  7.80000E+00 Dt=  5.00000E-02 [y] snes_conv_reason:   11
  newton =   1 [     178] linear =   119 [     20293] cuts =  0 [   1]
  --> max chng: dpmx=   7.1965E-05 dtmpmx=   6.7700E-06

== TH FLOW =====================================================================
 Step    172 Time=  7.85000E+00 Dt=  5.00000E-02 [y] snes_conv_reason:   11
  newton =   1 [     179] linear =   121 [     20414] cuts =  0 [   1]
  --> max chng: dpmx=   6.1666E-05 dtmpmx=   5.9603E-06

== TH FLOW =====================================================================
 Step    173 Time=  7.90000E+00 Dt=  5.00000E-02 [y] snes_conv_reason:   11
  newton =   1 [     180] linear =   118 [     20532] cuts =  0 [   1]
  --> max chng: dpmx=   5.2599E-05 dtmpmx=   5.2230E-06

== TH FLOW =====================================================================
 Step    174 Time=  7.95000E+00 Dt=  5.00000E-02 [y] snes_conv_reason:   11
  newton =   1 [     181] linear =   121 [     20653] cuts =  0 [   1]
  --> max chng: dpmx=   4.4623E-05 dtmpmx=   4.5552E-06

== TH FLOW =====================================================================
 Step    175 Time=  8.00000E+00 Dt=  5.00000E-02 [y] snes_conv_reason:   11
  newton =   1 [     182] linear =   121 [     20774] cuts =  0 [   1]
  --> max chng: dpmx=   3.7668E-05 dtmpmx=   3.9536E-06

== TH FLOW =====================================================================
 Step    176 Time=  8.05000E+00 Dt=  5.00000E-02 [y] snes_conv_reason:   11
  newton =   1 [     183] linear =   118 [     20892] cuts =  0 [   1]
  --> max chng: dpmx=   3.1635E-05 dtmpmx=   3.4145E-06

== TH FLOW =====================================================================
 Step    177 Time=  8.10000E+00 Dt=  5.00000E-02 [y] snes_conv_reason:   11
  newton =   1 [     184] linear =   120 [     21012] cuts =  0 [   1]
  --> max chng: dpmx=   2.6402E-05 dtmpmx=   2.9339E-06

== TH FLOW =====================================================================
 Step    178 Time=  8.15000E+00 Dt=  5.00000E-02 [y] snes_conv_reason:   11
  newton =   1 [     185] linear =   123 [     21135] cuts =  0 [   1]
  --> max chng: dpmx=   2.1914E-05 dtmpmx=   2.5077E-06

== TH FLOW =====================================================================
 Step    179 Time=  8.20000E+00 Dt=  5.00000E-02 [y] snes_conv_reason:   11
  newton =   1 [     186] linear =   121 [     21256] cuts =  0 [   1]
  --> max chng: dpmx=   1.8060E-05 dtmpmx=   2.1316E-06

== TH FLOW =====================================================================
 Step    180 Time=  8.25000E+00 Dt=  5.00000E-02 [y] snes_conv_reason:   11
  newton =   1 [     187] linear =   123 [     21379] cuts =  0 [   1]
  --> max chng: dpmx=   1.4782E-05 dtmpmx=   1.8017E-06

== TH FLOW =====================================================================
 Step    181 Time=  8.30000E+00 Dt=  5.00000E-02 [y] snes_conv_reason:   11
  newton =   1 [     188] linear =   125 [     21504] cuts =  0 [   1]
  --> max chng: dpmx=   1.2005E-05 dtmpmx=   1.5136E-06

== TH FLOW =====================================================================
 Step    182 Time=  8.35000E+00 Dt=  5.00000E-02 [y] snes_conv_reason:   11
  newton =   1 [     189] linear =   124 [     21628] cuts =  0 [   1]
  --> max chng: dpmx=   9.6702E-06 dtmpmx=   1.2632E-06

== TH FLOW =====================================================================
 Step    183 Time=  8.40000E+00 Dt=  5.00000E-02 [y] snes_conv_reason:   11
  newton =   1 [     190] linear =   123 [     21751] cuts =  0 [   1]
  --> max chng: dpmx=   7.7081E-06 dtmpmx=   1.0470E-06

== TH FLOW =====================================================================
 Step    184 Time=  8.45000E+00 Dt=  5.00000E-02 [y] snes_conv_reason:   11
  newton =   1 [     191] linear =   123 [     21874] cuts =  0 [   1]
  --> max chng: dpmx=   6.0812E-06 dtmpmx=   8.6110E-07

== TH FLOW =====================================================================
 Step    185 Time=  8.50000E+00 Dt=  5.00000E-02 [y] snes_conv_reason:   11
  newton =   1 [     192] linear =   123 [     21997] cuts =  0 [   1]
  --> max chng: dpmx=   4.7383E-06 dtmpmx=   7.0198E-07

== TH FLOW =====================================================================
 Step    186 Time=  8.55000E+00 Dt=  5.00000E-02 [y] snes_conv_reason:   11
  newton =   1 [     193] linear =   121 [     22118] cuts =  0 [   1]
  --> max chng: dpmx=   3.6383E-06 dtmpmx=   5.6676E-07

== TH FLOW =====================================================================
 Step    187 Time=  8.60000E+00 Dt=  5.00000E-02 [y] snes_conv_reason:   11
  newton =   1 [     194] linear =   121 [     22239] cuts =  0 [   1]
  --> max chng: dpmx=   2.7478E-06 dtmpmx=   4.5222E-07

== TH FLOW =====================================================================
 Step    188 Time=  8.65000E+00 Dt=  5.00000E-02 [y] snes_conv_reason:   11
  newton =   1 [     195] linear =   122 [     22361] cuts =  0 [   1]
  --> max chng: dpmx=   2.0331E-06 dtmpmx=   3.5594E-07

== TH FLOW =====================================================================
 Step    189 Time=  8.70000E+00 Dt=  5.00000E-02 [y] snes_conv_reason:   11
  newton =   1 [     196] linear =   125 [     22486] cuts =  0 [   1]
  --> max chng: dpmx=   1.4692E-06 dtmpmx=   2.7528E-07

== TH FLOW =====================================================================
 Step    190 Time=  8.75000E+00 Dt=  5.00000E-02 [y] snes_conv_reason:   11
  newton =   1 [     197] linear =   115 [     22601] cuts =  0 [   1]
  --> max chng: dpmx=   1.1848E-06 dtmpmx=   2.0828E-07

== TH FLOW =====================================================================
 Step    191 Time=  8.80000E+00 Dt=  5.00000E-02 [y] snes_conv_reason:   11
  newton =   1 [     198] linear =   121 [     22722] cuts =  0 [   1]
  --> max chng: dpmx=   1.3732E-06 dtmpmx=   1.5279E-07

== TH FLOW =====================================================================
 Step    192 Time=  8.85000E+00 Dt=  5.00000E-02 [y] snes_conv_reason:   11
  newton =   1 [     199] linear =   119 [     22841] cuts =  0 [   1]
  --> max chng: dpmx=   1.5175E-06 dtmpmx=   1.0722E-07

== TH FLOW =====================================================================
 Step    193 Time=  8.90000E+00 Dt=  5.00000E-02 [y] snes_conv_reason:   11
  newton =   1 [     200] linear =   116 [     22957] cuts =  0 [   1]
  --> max chng: dpmx=   1.6204E-06 dtmpmx=   7.0165E-08

== TH FLOW =====================================================================
 Step    194 Time=  8.95000E+00 Dt=  5.00000E-02 [y] snes_conv_reason:   11
  newton =   1 [     201] linear =   115 [     23072] cuts =  0 [   1]
  --> max chng: dpmx=   1.6891E-06 dtmpmx=   6.1902E-08

== TH FLOW =====================================================================
 Step    195 Time=  9.00000E+00 Dt=  5.00000E-02 [y] snes_conv_reason:   11
  newton =   1 [     202] linear =   113 [     23185] cuts =  0 [   1]
  --> max chng: dpmx=   1.7269E-06 dtmpmx=   6.1310E-08

== TH FLOW =====================================================================
 Step    196 Time=  9.05000E+00 Dt=  5.00000E-02 [y] snes_conv_reason:   11
  newton =   1 [     203] linear =   113 [     23298] cuts =  0 [   1]
  --> max chng: dpmx=   1.7408E-06 dtmpmx=   6.0756E-08

== TH FLOW =====================================================================
 Step    197 Time=  9.10000E+00 Dt=  5.00000E-02 [y] snes_conv_reason:   11
  newton =   1 [     204] linear =   110 [     23408] cuts =  0 [   1]
  --> max chng: dpmx=   1.7334E-06 dtmpmx=   6.0106E-08

== TH FLOW =====================================================================
 Step    198 Time=  9.15000E+00 Dt=  5.00000E-02 [y] snes_conv_reason:   11
  newton =   1 [     205] linear =   114 [     23522] cuts =  0 [   1]
  --> max chng: dpmx=   1.7103E-06 dtmpmx=   5.9553E-08

== TH FLOW =====================================================================
 Step    199 Time=  9.20000E+00 Dt=  5.00000E-02 [y] snes_conv_reason:   11
  newton =   1 [     206] linear =   112 [     23634] cuts =  0 [   1]
  --> max chng: dpmx=   1.6730E-06 dtmpmx=   5.8953E-08

== TH FLOW =====================================================================
 Step    200 Time=  9.25000E+00 Dt=  5.00000E-02 [y] snes_conv_reason:   11
  newton =   1 [     207] linear =   112 [     23746] cuts =  0 [   1]
  --> max chng: dpmx=   1.6267E-06 dtmpmx=   5.8383E-08

== TH FLOW =====================================================================
 Step    201 Time=  9.30000E+00 Dt=  5.00000E-02 [y] snes_conv_reason:   11
  newton =   1 [     208] linear =   112 [     23858] cuts =  0 [   1]
  --> max chng: dpmx=   1.5721E-06 dtmpmx=   5.7836E-08

== TH FLOW =====================================================================
 Step    202 Time=  9.35000E+00 Dt=  5.00000E-02 [y] snes_conv_reason:   11
  newton =   1 [     209] linear =   111 [     23969] cuts =  0 [   1]
  --> max chng: dpmx=   1.5119E-06 dtmpmx=   5.7242E-08

== TH FLOW =====================================================================
 Step    203 Time=  9.40000E+00 Dt=  5.00000E-02 [y] snes_conv_reason:   11
  newton =   1 [     210] linear =   102 [     24071] cuts =  0 [   1]
  --> max chng: dpmx=   1.4472E-06 dtmpmx=   5.6648E-08

== TH FLOW =====================================================================
 Step    204 Time=  9.45000E+00 Dt=  5.00000E-02 [y] snes_conv_reason:   11
  newton =   1 [     211] linear =   104 [     24175] cuts =  0 [   1]
  --> max chng: dpmx=   1.3806E-06 dtmpmx=   5.6099E-08

== TH FLOW =====================================================================
 Step    205 Time=  9.50000E+00 Dt=  5.00000E-02 [y] snes_conv_reason:   11
  newton =   1 [     212] linear =   108 [     24283] cuts =  0 [   1]
  --> max chng: dpmx=   1.3118E-06 dtmpmx=   5.5523E-08

== TH FLOW =====================================================================
 Step    206 Time=  9.55000E+00 Dt=  5.00000E-02 [y] snes_conv_reason:   11
  newton =   1 [     213] linear =   111 [     24394] cuts =  0 [   1]
  --> max chng: dpmx=   1.2426E-06 dtmpmx=   5.4827E-08

== TH FLOW =====================================================================
 Step    207 Time=  9.60000E+00 Dt=  5.00000E-02 [y] snes_conv_reason:   11
  newton =   1 [     214] linear =   114 [     24508] cuts =  0 [   1]
  --> max chng: dpmx=   1.1740E-06 dtmpmx=   5.3623E-08

== TH FLOW =====================================================================
 Step    208 Time=  9.65000E+00 Dt=  5.00000E-02 [y] snes_conv_reason:   11
  newton =   1 [     215] linear =   111 [     24619] cuts =  0 [   1]
  --> max chng: dpmx=   1.1057E-06 dtmpmx=   5.2167E-08

== TH FLOW =====================================================================
 Step    209 Time=  9.70000E+00 Dt=  5.00000E-02 [y] snes_conv_reason:   11
  newton =   1 [     216] linear =   114 [     24733] cuts =  0 [   1]
  --> max chng: dpmx=   1.0389E-06 dtmpmx=   5.0536E-08

== TH FLOW =====================================================================
 Step    210 Time=  9.75000E+00 Dt=  5.00000E-02 [y] snes_conv_reason:   11
  newton =   1 [     217] linear =   111 [     24844] cuts =  0 [   1]
  --> max chng: dpmx=   9.7346E-07 dtmpmx=   4.8685E-08

== TH FLOW =====================================================================
 Step    211 Time=  9.80000E+00 Dt=  5.00000E-02 [y] snes_conv_reason:   11
  newton =   1 [     218] linear =   113 [     24957] cuts =  0 [   1]
  --> max chng: dpmx=   9.1048E-07 dtmpmx=   4.6686E-08

== TH FLOW =====================================================================
 Step    212 Time=  9.85000E+00 Dt=  5.00000E-02 [y] snes_conv_reason:   11
  newton =   1 [     219] linear =   113 [     25070] cuts =  0 [   1]
  --> max chng: dpmx=   8.4890E-07 dtmpmx=   4.4564E-08

== TH FLOW =====================================================================
 Step    213 Time=  9.90000E+00 Dt=  5.00000E-02 [y] snes_conv_reason:   11
  newton =   1 [     220] linear =   112 [     25182] cuts =  0 [   1]
  --> max chng: dpmx=   7.9023E-07 dtmpmx=   4.2448E-08

== TH FLOW =====================================================================
 Step    214 Time=  9.95000E+00 Dt=  5.00000E-02 [y] snes_conv_reason:   11
  newton =   1 [     221] linear =   115 [     25297] cuts =  0 [   1]
  --> max chng: dpmx=   7.3377E-07 dtmpmx=   4.0329E-08

== TH FLOW =====================================================================
 Step    215 Time=  1.00000E+01 Dt=  5.00000E-02 [y] snes_conv_reason:   11
  newton =   1 [     222] linear =   111 [     25408] cuts =  0 [   1]
  --> max chng: dpmx=   6.7998E-07 dtmpmx=   3.8100E-08

== TH FLOW =====================================================================
 Step    216 Time=  1.00500E+01 Dt=  5.00000E-02 [y] snes_conv_reason:   11
  newton =   1 [     223] linear =   115 [     25523] cuts =  0 [   1]
  --> max chng: dpmx=   6.2841E-07 dtmpmx=   3.5983E-08

== TH FLOW =====================================================================
 Step    217 Time=  1.01000E+01 Dt=  5.00000E-02 [y] snes_conv_reason:   11
  newton =   1 [     224] linear =   115 [     25638] cuts =  0 [   1]
  --> max chng: dpmx=   5.7963E-07 dtmpmx=   3.3770E-08

== TH FLOW =====================================================================
 Step    218 Time=  1.01500E+01 Dt=  5.00000E-02 [y] snes_conv_reason:   11
  newton =   1 [     225] linear =   115 [     25753] cuts =  0 [   1]
  --> max chng: dpmx=   5.3365E-07 dtmpmx=   3.1761E-08

== TH FLOW =====================================================================
 Step    219 Time=  1.02000E+01 Dt=  5.00000E-02 [y] snes_conv_reason:   11
  newton =   1 [     226] linear =   117 [     25870] cuts =  0 [   1]
  --> max chng: dpmx=   4.8999E-07 dtmpmx=   2.9738E-08

== TH FLOW =====================================================================
 Step    220 Time=  1.02500E+01 Dt=  5.00000E-02 [y] snes_conv_reason:   11
  newton =   1 [     227] linear =   117 [     25987] cuts =  0 [   1]
  --> max chng: dpmx=   4.4901E-07 dtmpmx=   2.7760E-08

== TH FLOW =====================================================================
 Step    221 Time=  1.03000E+01 Dt=  5.00000E-02 [y] snes_conv_reason:   11
  newton =   1 [     228] linear =   117 [     26104] cuts =  0 [   1]
  --> max chng: dpmx=   4.1048E-07 dtmpmx=   2.5875E-08

== TH FLOW =====================================================================
 Step    222 Time=  1.03500E+01 Dt=  5.00000E-02 [y] snes_conv_reason:   11
  newton =   1 [     229] linear =   117 [     26221] cuts =  0 [   1]
  --> max chng: dpmx=   3.7439E-07 dtmpmx=   2.3989E-08

== TH FLOW =====================================================================
 Step    223 Time=  1.04000E+01 Dt=  5.00000E-02 [y] snes_conv_reason:   11
  newton =   1 [     230] linear =   117 [     26338] cuts =  0 [   1]
  --> max chng: dpmx=   3.4063E-07 dtmpmx=   2.2290E-08

== TH FLOW =====================================================================
 Step    224 Time=  1.04500E+01 Dt=  5.00000E-02 [y] snes_conv_reason:   11
  newton =   1 [     231] linear =   116 [     26454] cuts =  0 [   1]
  --> max chng: dpmx=   3.0932E-07 dtmpmx=   2.0601E-08

== TH FLOW =====================================================================
 Step    225 Time=  1.05000E+01 Dt=  5.00000E-02 [y] snes_conv_reason:   11
  newton =   1 [     232] linear =   116 [     26570] cuts =  0 [   1]
  --> max chng: dpmx=   2.8010E-07 dtmpmx=   1.8975E-08

== TH FLOW =====================================================================
 Step    226 Time=  1.05500E+01 Dt=  5.00000E-02 [y] snes_conv_reason:   11
  newton =   1 [     233] linear =   116 [     26686] cuts =  0 [   1]
  --> max chng: dpmx=   2.5309E-07 dtmpmx=   1.7482E-08

== TH FLOW =====================================================================
 Step    227 Time=  1.06000E+01 Dt=  5.00000E-02 [y] snes_conv_reason:   11
  newton =   1 [     234] linear =   113 [     26799] cuts =  0 [   1]
  --> max chng: dpmx=   2.2806E-07 dtmpmx=   1.6053E-08

== TH FLOW =====================================================================
 Step    228 Time=  1.06500E+01 Dt=  5.00000E-02 [y] snes_conv_reason:   11
  newton =   1 [     235] linear =   118 [     26917] cuts =  0 [   1]
  --> max chng: dpmx=   2.0512E-07 dtmpmx=   1.4696E-08

== TH FLOW =====================================================================
 Step    229 Time=  1.07000E+01 Dt=  5.00000E-02 [y] snes_conv_reason:   11
  newton =   1 [     236] linear =   117 [     27034] cuts =  0 [   1]
  --> max chng: dpmx=   1.8394E-07 dtmpmx=   1.3410E-08

== TH FLOW =====================================================================
 Step    230 Time=  1.07500E+01 Dt=  5.00000E-02 [y] snes_conv_reason:   11
  newton =   1 [     237] linear =   109 [     27143] cuts =  0 [   1]
  --> max chng: dpmx=   1.6449E-07 dtmpmx=   1.2239E-08

== TH FLOW =====================================================================
 Step    231 Time=  1.08000E+01 Dt=  5.00000E-02 [y] snes_conv_reason:   11
  newton =   1 [     238] linear =   119 [     27262] cuts =  0 [   1]
  --> max chng: dpmx=   1.4668E-07 dtmpmx=   1.1088E-08

== TH FLOW =====================================================================
 Step    232 Time=  1.08500E+01 Dt=  5.00000E-02 [y] snes_conv_reason:   11
  newton =   1 [     239] linear =   119 [     27381] cuts =  0 [   1]
  --> max chng: dpmx=   1.3062E-07 dtmpmx=   1.0115E-08

== TH FLOW =====================================================================
 Step    233 Time=  1.09000E+01 Dt=  5.00000E-02 [y] snes_conv_reason:   11
  newton =   1 [     240] linear =   119 [     27500] cuts =  0 [   1]
  --> max chng: dpmx=   1.1572E-07 dtmpmx=   9.0635E-09

== TH FLOW =====================================================================
 Step    234 Time=  1.09500E+01 Dt=  5.00000E-02 [y] snes_conv_reason:   11
  newton =   1 [     241] linear =   119 [     27619] cuts =  0 [   1]
  --> max chng: dpmx=   1.0245E-07 dtmpmx=   8.2421E-09

== TH FLOW =====================================================================
 Step    235 Time=  1.10000E+01 Dt=  5.00000E-02 [y] snes_conv_reason:   11
  newton =   1 [     242] linear =   120 [     27739] cuts =  0 [   1]
  --> max chng: dpmx=   9.0338E-08 dtmpmx=   7.3798E-09

== TH FLOW =====================================================================
 Step    236 Time=  1.10500E+01 Dt=  5.00000E-02 [y] snes_conv_reason:   11
  newton =   1 [     243] linear =   120 [     27859] cuts =  0 [   1]
  --> max chng: dpmx=   7.9512E-08 dtmpmx=   6.6160E-09

== TH FLOW =====================================================================
 Step    237 Time=  1.11000E+01 Dt=  5.00000E-02 [y] snes_conv_reason:   11
  newton =   1 [     244] linear =   118 [     27977] cuts =  0 [   1]
  --> max chng: dpmx=   6.9616E-08 dtmpmx=   5.9149E-09

== TH FLOW =====================================================================
 Step    238 Time=  1.11500E+01 Dt=  5.00000E-02 [y] snes_conv_reason:   11
  newton =   1 [     245] linear =   120 [     28097] cuts =  0 [   1]
  --> max chng: dpmx=   6.0885E-08 dtmpmx=   5.2880E-09

== TH FLOW =====================================================================
 Step    239 Time=  1.12000E+01 Dt=  5.00000E-02 [y] snes_conv_reason:   11
  newton =   1 [     246] linear =   120 [     28217] cuts =  0 [   1]
  --> max chng: dpmx=   5.3085E-08 dtmpmx=   4.6548E-09

== TH FLOW =====================================================================
 Step    240 Time=  1.12500E+01 Dt=  5.00000E-02 [y] snes_conv_reason:   11
  newton =   1 [     247] linear =   118 [     28335] cuts =  0 [   1]
  --> max chng: dpmx=   4.5984E-08 dtmpmx=   4.1516E-09

== TH FLOW =====================================================================
 Step    241 Time=  1.13000E+01 Dt=  5.00000E-02 [y] snes_conv_reason:   11
  newton =   1 [     248] linear =   119 [     28454] cuts =  0 [   1]
  --> max chng: dpmx=   3.9698E-08 dtmpmx=   3.6939E-09

== TH FLOW =====================================================================
 Step    242 Time=  1.13500E+01 Dt=  5.00000E-02 [y] snes_conv_reason:   11
  newton =   1 [     249] linear =   120 [     28574] cuts =  0 [   1]
  --> max chng: dpmx=   3.4226E-08 dtmpmx=   3.2540E-09

== TH FLOW =====================================================================
 Step    243 Time=  1.14000E+01 Dt=  5.00000E-02 [y] snes_conv_reason:   11
  newton =   1 [     250] linear =   119 [     28693] cuts =  0 [   1]
  --> max chng: dpmx=   2.9337E-08 dtmpmx=   2.8039E-09

== TH FLOW =====================================================================
 Step    244 Time=  1.14500E+01 Dt=  5.00000E-02 [y] snes_conv_reason:   11
  newton =   1 [     251] linear =   122 [     28815] cuts =  0 [   1]
  --> max chng: dpmx=   2.5146E-08 dtmpmx=   2.4743E-09

== TH FLOW =====================================================================
 Step    245 Time=  1.15000E+01 Dt=  5.00000E-02 [y] snes_conv_reason:   11
  newton =   1 [     252] linear =   121 [     28936] cuts =  0 [   1]
  --> max chng: dpmx=   2.1304E-08 dtmpmx=   2.1270E-09

== TH FLOW =====================================================================
 Step    246 Time=  1.15500E+01 Dt=  5.00000E-02 [y] snes_conv_reason:   11
  newton =   1 [     253] linear =   121 [     29057] cuts =  0 [   1]
  --> max chng: dpmx=   1.8044E-08 dtmpmx=   1.8817E-09

== TH FLOW =====================================================================
 Step    247 Time=  1.16000E+01 Dt=  5.00000E-02 [y] snes_conv_reason:   11
  newton =   1 [     254] linear =   124 [     29181] cuts =  0 [   1]
  --> max chng: dpmx=   1.5134E-08 dtmpmx=   1.5947E-09

== TH FLOW =====================================================================
 Step    248 Time=  1.16500E+01 Dt=  5.00000E-02 [y] snes_conv_reason:   11
  newton =   1 [     255] linear =   126 [     29307] cuts =  0 [   1]
  --> max chng: dpmx=   1.2689E-08 dtmpmx=   1.4053E-09

== TH FLOW =====================================================================
 Step    249 Time=  1.17000E+01 Dt=  5.00000E-02 [y] snes_conv_reason:   11
  newton =   1 [     256] linear =   123 [     29430] cuts =  0 [   1]
  --> max chng: dpmx=   1.0594E-08 dtmpmx=   1.1925E-09

== TH FLOW =====================================================================
 Step    250 Time=  1.17500E+01 Dt=  5.00000E-02 [y] snes_conv_reason:   11
  newton =   1 [     257] linear =   124 [     29554] cuts =  0 [   1]
  --> max chng: dpmx=   8.7311E-09 dtmpmx=   9.9934E-10

== TH FLOW =====================================================================
 Step    251 Time=  1.18000E+01 Dt=  5.00000E-02 [y] snes_conv_reason:   11
  newton =   1 [     258] linear =   127 [     29681] cuts =  0 [   1]
  --> max chng: dpmx=   7.1013E-09 dtmpmx=   8.5755E-10

== TH FLOW =====================================================================
 Step    252 Time=  1.18500E+01 Dt=  5.00000E-02 [y] snes_conv_reason:   11
  newton =   1 [     259] linear =   125 [     29806] cuts =  0 [   1]
  --> max chng: dpmx=   5.7044E-09 dtmpmx=   7.2067E-10

== TH FLOW =====================================================================
 Step    253 Time=  1.19000E+01 Dt=  5.00000E-02 [y] snes_conv_reason:   11
  newton =   1 [     260] linear =   132 [     29938] cuts =  0 [   1]
  --> max chng: dpmx=   4.6566E-09 dtmpmx=   5.9502E-10

== TH FLOW =====================================================================
 Step    254 Time=  1.19500E+01 Dt=  5.00000E-02 [y] snes_conv_reason:   11
  newton =   1 [     261] linear =   133 [     30071] cuts =  0 [   1]
  --> max chng: dpmx=   3.6089E-09 dtmpmx=   4.9404E-10

== TH FLOW =====================================================================
 Step    255 Time=  1.20000E+01 Dt=  5.00000E-02 [y] snes_conv_reason:   11
  newton =   1 [     262] linear =   131 [     30202] cuts =  0 [   1]
  --> max chng: dpmx=   2.9104E-09 dtmpmx=   4.1132E-10

== TH FLOW =====================================================================
 Step    256 Time=  1.20500E+01 Dt=  5.00000E-02 [y] snes_conv_reason:   11
  newton =   1 [     263] linear =   131 [     30333] cuts =  0 [   1]
  --> max chng: dpmx=   2.2119E-09 dtmpmx=   3.7156E-10

== TH FLOW =====================================================================
 Step    257 Time=  1.21000E+01 Dt=  5.00000E-02 [y] snes_conv_reason:   11
  newton =   1 [     264] linear =   125 [     30458] cuts =  0 [   1]
  --> max chng: dpmx=   1.7462E-09 dtmpmx=   2.5132E-10

[...]
 Step    496 Time=  2.40500E+01 Dt=  5.00000E-02 [y] snes_conv_reason:   11
  newton =   1 [     503] linear =   106 [     54084] cuts =  0 [   1]
  --> max chng: dpmx=   2.3283E-10 dtmpmx=   9.9812E-11

== TH FLOW =====================================================================
 Step    497 Time=  2.41000E+01 Dt=  5.00000E-02 [y] snes_conv_reason:   11
  newton =   1 [     504] linear =    85 [     54169] cuts =  0 [   1]
  --> max chng: dpmx=   2.3283E-10 dtmpmx=   8.1542E-11

== TH FLOW =====================================================================
 Step    498 Time=  2.41500E+01 Dt=  5.00000E-02 [y] snes_conv_reason:   11
  newton =   1 [     505] linear =   116 [     54285] cuts =  0 [   1]
  --> max chng: dpmx=   2.3283E-10 dtmpmx=   8.8210E-11

== TH FLOW =====================================================================
 Step    499 Time=  2.42000E+01 Dt=  5.00000E-02 [y] snes_conv_reason:   11
  newton =   1 [     506] linear =    89 [     54374] cuts =  0 [   1]
  --> max chng: dpmx=   2.3283E-10 dtmpmx=   9.2513E-11

== TH FLOW =====================================================================
 Step    500 Time=  2.42500E+01 Dt=  5.00000E-02 [y] snes_conv_reason:   11
  newton =   1 [     507] linear =    99 [     54473] cuts =  0 [   1]
  --> max chng: dpmx=   2.3283E-10 dtmpmx=   8.5796E-11

== TH FLOW =====================================================================
 Step    501 Time=  2.43000E+01 Dt=  5.00000E-02 [y] snes_conv_reason:   11
  newton =   1 [     508] linear =    86 [     54559] cuts =  0 [   1]
  --> max chng: dpmx=   2.3283E-10 dtmpmx=   8.3913E-11

== TH FLOW =====================================================================
 Step    502 Time=  2.43500E+01 Dt=  5.00000E-02 [y] snes_conv_reason:   11
  newton =   1 [     509] linear =   102 [     54661] cuts =  0 [   1]
  --> max chng: dpmx=   2.3283E-10 dtmpmx=   9.3841E-11

== TH FLOW =====================================================================
 Step    503 Time=  2.44000E+01 Dt=  5.00000E-02 [y] snes_conv_reason:   11
  newton =   1 [     510] linear =   107 [     54768] cuts =  0 [   1]
  --> max chng: dpmx=   2.3283E-10 dtmpmx=   7.8749E-11

== TH FLOW =====================================================================
 Step    504 Time=  2.44500E+01 Dt=  5.00000E-02 [y] snes_conv_reason:   11
  newton =   1 [     511] linear =    95 [     54863] cuts =  0 [   1]
  --> max chng: dpmx=   2.3283E-10 dtmpmx=   8.0609E-11

== TH FLOW =====================================================================
 Step    505 Time=  2.45000E+01 Dt=  5.00000E-02 [y] snes_conv_reason:   11
  newton =   1 [     512] linear =   109 [     54972] cuts =  0 [   1]
  --> max chng: dpmx=   2.3283E-10 dtmpmx=   8.4489E-11

== TH FLOW =====================================================================
 Step    506 Time=  2.45500E+01 Dt=  5.00000E-02 [y] snes_conv_reason:   11
  newton =   1 [     513] linear =    99 [     55071] cuts =  0 [   1]
  --> max chng: dpmx=   2.3283E-10 dtmpmx=   8.2398E-11

== TH FLOW =====================================================================
 Step    507 Time=  2.46000E+01 Dt=  5.00000E-02 [y] snes_conv_reason:   11
  newton =   1 [     514] linear =   107 [     55178] cuts =  0 [   1]
  --> max chng: dpmx=   2.3283E-10 dtmpmx=   8.3283E-11

== TH FLOW =====================================================================
 Step    508 Time=  2.46500E+01 Dt=  5.00000E-02 [y] snes_conv_reason:   11
  newton =   1 [     515] linear =   121 [     55299] cuts =  0 [   1]
  --> max chng: dpmx=   2.3283E-10 dtmpmx=   8.9862E-11

== TH FLOW =====================================================================
 Step    509 Time=  2.47000E+01 Dt=  5.00000E-02 [y] snes_conv_reason:   11
  newton =   1 [     516] linear =    73 [     55372] cuts =  0 [   1]
  --> max chng: dpmx=   2.3283E-10 dtmpmx=   7.8627E-11

== TH FLOW =====================================================================
 Step    510 Time=  2.47500E+01 Dt=  5.00000E-02 [y] snes_conv_reason:   11
  newton =   1 [     517] linear =   100 [     55472] cuts =  0 [   1]
  --> max chng: dpmx=   2.3283E-10 dtmpmx=   8.2629E-11

== TH FLOW =====================================================================
 Step    511 Time=  2.48000E+01 Dt=  5.00000E-02 [y] snes_conv_reason:   11
  newton =   1 [     518] linear =   103 [     55575] cuts =  0 [   1]
  --> max chng: dpmx=   2.3283E-10 dtmpmx=   9.3545E-11

== TH FLOW =====================================================================
 Step    512 Time=  2.48500E+01 Dt=  5.00000E-02 [y] snes_conv_reason:   11
  newton =   1 [     519] linear =   103 [     55678] cuts =  0 [   1]
  --> max chng: dpmx=   2.3283E-10 dtmpmx=   7.9968E-11

== TH FLOW =====================================================================
 Step    513 Time=  2.49000E+01 Dt=  5.00000E-02 [y] snes_conv_reason:   11
  newton =   1 [     520] linear =    98 [     55776] cuts =  0 [   1]
  --> max chng: dpmx=   2.3283E-10 dtmpmx=   9.6477E-11

== TH FLOW =====================================================================
 Step    514 Time=  2.49500E+01 Dt=  5.00000E-02 [y] snes_conv_reason:   11
  newton =   1 [     521] linear =    79 [     55855] cuts =  0 [   1]
  --> max chng: dpmx=   2.3283E-10 dtmpmx=   8.3563E-11

== TH FLOW =====================================================================
 Step    515 Time=  2.50000E+01 Dt=  5.00000E-02 [y] snes_conv_reason:   11
  newton =   1 [     522] linear =    70 [     55925] cuts =  0 [   1]
  --> max chng: dpmx=   2.3283E-10 dtmpmx=   7.9108E-11

== TH FLOW =====================================================================
 Step    516 Time=  2.50500E+01 Dt=  5.00000E-02 [y] snes_conv_reason:   11
  newton =   1 [     523] linear =   122 [     56047] cuts =  0 [   1]
  --> max chng: dpmx=   2.3283E-10 dtmpmx=   9.0315E-11

== TH FLOW =====================================================================
 Step    517 Time=  2.51000E+01 Dt=  5.00000E-02 [y] snes_conv_reason:   11
  newton =   1 [     524] linear =    73 [     56120] cuts =  0 [   1]
  --> max chng: dpmx=   2.3283E-10 dtmpmx=   8.7669E-11

== TH FLOW =====================================================================
 Step    518 Time=  2.51500E+01 Dt=  5.00000E-02 [y] snes_conv_reason:   11
  newton =   1 [     525] linear =    81 [     56201] cuts =  0 [   1]
  --> max chng: dpmx=   2.3283E-10 dtmpmx=   8.0975E-11

== TH FLOW =====================================================================
 Step    519 Time=  2.52000E+01 Dt=  5.00000E-02 [y] snes_conv_reason:   11
  newton =   1 [     526] linear =   105 [     56306] cuts =  0 [   1]
  --> max chng: dpmx=   2.3283E-10 dtmpmx=   1.0213E-10

== TH FLOW =====================================================================
 Step    520 Time=  2.52500E+01 Dt=  5.00000E-02 [y] snes_conv_reason:   11
  newton =   1 [     527] linear =    94 [     56400] cuts =  0 [   1]
  --> max chng: dpmx=   2.3283E-10 dtmpmx=   8.5970E-11

== TH FLOW =====================================================================
 Step    521 Time=  2.53000E+01 Dt=  5.00000E-02 [y] snes_conv_reason:   11
  newton =   1 [     528] linear =    88 [     56488] cuts =  0 [   1]
  --> max chng: dpmx=   2.3283E-10 dtmpmx=   9.3559E-11

== TH FLOW =====================================================================
 Step    522 Time=  2.53500E+01 Dt=  5.00000E-02 [y] snes_conv_reason:   11
  newton =   1 [     529] linear =   108 [     56596] cuts =  0 [   1]
  --> max chng: dpmx=   2.3283E-10 dtmpmx=   9.1736E-11

== TH FLOW =====================================================================
 Step    523 Time=  2.54000E+01 Dt=  5.00000E-02 [y] snes_conv_reason:   11
  newton =   1 [     530] linear =    83 [     56679] cuts =  0 [   1]
  --> max chng: dpmx=   2.3283E-10 dtmpmx=   9.1848E-11

== TH FLOW =====================================================================
 Step    524 Time=  2.54500E+01 Dt=  5.00000E-02 [y] snes_conv_reason:   11
  newton =   1 [     531] linear =    86 [     56765] cuts =  0 [   1]
  --> max chng: dpmx=   2.3283E-10 dtmpmx=   9.2347E-11

== TH FLOW =====================================================================
 Step    525 Time=  2.55000E+01 Dt=  5.00000E-02 [y] snes_conv_reason:   11
  newton =   1 [     532] linear =    86 [     56851] cuts =  0 [   1]
  --> max chng: dpmx=   2.3283E-10 dtmpmx=   8.7955E-11

== TH FLOW =====================================================================
 Step    526 Time=  2.55500E+01 Dt=  5.00000E-02 [y] snes_conv_reason:   11
  newton =   1 [     533] linear =   111 [     56962] cuts =  0 [   1]
  --> max chng: dpmx=   2.3283E-10 dtmpmx=   8.0989E-11

== TH FLOW =====================================================================
 Step    527 Time=  2.56000E+01 Dt=  5.00000E-02 [y] snes_conv_reason:   11
  newton =   1 [     534] linear =    93 [     57055] cuts =  0 [   1]
  --> max chng: dpmx=   2.3283E-10 dtmpmx=   7.7771E-11

== TH FLOW =====================================================================
 Step    528 Time=  2.56500E+01 Dt=  5.00000E-02 [y] snes_conv_reason:   11
  newton =   1 [     535] linear =    73 [     57128] cuts =  0 [   1]
  --> max chng: dpmx=   2.3283E-10 dtmpmx=   9.4106E-11

== TH FLOW =====================================================================
 Step    529 Time=  2.57000E+01 Dt=  5.00000E-02 [y] snes_conv_reason:   11
  newton =   1 [     536] linear =   118 [     57246] cuts =  0 [   1]
  --> max chng: dpmx=   2.3283E-10 dtmpmx=   9.7399E-11

== TH FLOW =====================================================================
 Step    530 Time=  2.57500E+01 Dt=  5.00000E-02 [y] snes_conv_reason:   11
  newton =   1 [     537] linear =    97 [     57343] cuts =  0 [   1]
  --> max chng: dpmx=   2.3283E-10 dtmpmx=   9.4765E-11

== TH FLOW =====================================================================
 Step    531 Time=  2.58000E+01 Dt=  5.00000E-02 [y] snes_conv_reason:   11
  newton =   1 [     538] linear =    98 [     57441] cuts =  0 [   1]
  --> max chng: dpmx=   2.3283E-10 dtmpmx=   7.7611E-11

== TH FLOW =====================================================================
 Step    532 Time=  2.58500E+01 Dt=  5.00000E-02 [y] snes_conv_reason:   11
  newton =   1 [     539] linear =    88 [     57529] cuts =  0 [   1]
  --> max chng: dpmx=   2.3283E-10 dtmpmx=   1.0288E-10

== TH FLOW =====================================================================
 Step    533 Time=  2.59000E+01 Dt=  5.00000E-02 [y] snes_conv_reason:   11
  newton =   1 [     540] linear =   105 [     57634] cuts =  0 [   1]
  --> max chng: dpmx=   2.3283E-10 dtmpmx=   8.8308E-11

== TH FLOW =====================================================================
 Step    534 Time=  2.59500E+01 Dt=  5.00000E-02 [y] snes_conv_reason:   11
  newton =   1 [     541] linear =    71 [     57705] cuts =  0 [   1]
  --> max chng: dpmx=   2.3283E-10 dtmpmx=   9.1150E-11

== TH FLOW =====================================================================
 Step    535 Time=  2.60000E+01 Dt=  5.00000E-02 [y] snes_conv_reason:   11
  newton =   1 [     542] linear =   124 [     57829] cuts =  0 [   1]
  --> max chng: dpmx=   2.3283E-10 dtmpmx=   8.3331E-11

== TH FLOW =====================================================================
 Step    536 Time=  2.60500E+01 Dt=  5.00000E-02 [y] snes_conv_reason:   11
  newton =   1 [     543] linear =   104 [     57933] cuts =  0 [   1]
  --> max chng: dpmx=   2.3283E-10 dtmpmx=   8.5462E-11

== TH FLOW =====================================================================
 Step    537 Time=  2.61000E+01 Dt=  5.00000E-02 [y] snes_conv_reason:   11
  newton =   1 [     544] linear =    55 [     57988] cuts =  0 [   1]
  --> max chng: dpmx=   2.3283E-10 dtmpmx=   7.7934E-11

== TH FLOW =====================================================================
 Step    538 Time=  2.61500E+01 Dt=  5.00000E-02 [y] snes_conv_reason:   11
  newton =   1 [     545] linear =    88 [     58076] cuts =  0 [   1]
  --> max chng: dpmx=   2.3283E-10 dtmpmx=   8.0481E-11

== TH FLOW =====================================================================
 Step    539 Time=  2.62000E+01 Dt=  5.00000E-02 [y] snes_conv_reason:   11
  newton =   1 [     546] linear =    99 [     58175] cuts =  0 [   1]
  --> max chng: dpmx=   2.3283E-10 dtmpmx=   8.8420E-11

== TH FLOW =====================================================================
 Step    540 Time=  2.62500E+01 Dt=  5.00000E-02 [y] snes_conv_reason:   11
  newton =   1 [     547] linear =    75 [     58250] cuts =  0 [   1]
  --> max chng: dpmx=   2.3283E-10 dtmpmx=   8.5526E-11

== TH FLOW =====================================================================
 Step    541 Time=  2.63000E+01 Dt=  5.00000E-02 [y] snes_conv_reason:   11
  newton =   1 [     548] linear =   100 [     58350] cuts =  0 [   1]
  --> max chng: dpmx=   2.3283E-10 dtmpmx=   8.7731E-11

== TH FLOW =====================================================================
 Step    542 Time=  2.63500E+01 Dt=  5.00000E-02 [y] snes_conv_reason:   11
  newton =   1 [     549] linear =    90 [     58440] cuts =  0 [   1]
  --> max chng: dpmx=   2.3283E-10 dtmpmx=   8.8860E-11

== TH FLOW =====================================================================
 Step    543 Time=  2.64000E+01 Dt=  5.00000E-02 [y] snes_conv_reason:   11
  newton =   1 [     550] linear =    98 [     58538] cuts =  0 [   1]
  --> max chng: dpmx=   2.3283E-10 dtmpmx=   1.0422E-10

== TH FLOW =====================================================================
 Step    544 Time=  2.64500E+01 Dt=  5.00000E-02 [y] snes_conv_reason:   11
  newton =   1 [     551] linear =    82 [     58620] cuts =  0 [   1]
  --> max chng: dpmx=   2.3283E-10 dtmpmx=   8.4905E-11

== TH FLOW =====================================================================
 Step    545 Time=  2.65000E+01 Dt=  5.00000E-02 [y] snes_conv_reason:   11
  newton =   1 [     552] linear =    99 [     58719] cuts =  0 [   1]
  --> max chng: dpmx=   2.3283E-10 dtmpmx=   8.3014E-11

== TH FLOW =====================================================================
 Step    546 Time=  2.65500E+01 Dt=  5.00000E-02 [y] snes_conv_reason:   11
  newton =   1 [     553] linear =   111 [     58830] cuts =  0 [   1]
  --> max chng: dpmx=   2.3283E-10 dtmpmx=   8.6706E-11

== TH FLOW =====================================================================
 Step    547 Time=  2.66000E+01 Dt=  5.00000E-02 [y] snes_conv_reason:   11
  newton =   1 [     554] linear =   103 [     58933] cuts =  0 [   1]
  --> max chng: dpmx=   2.3283E-10 dtmpmx=   9.1745E-11

== TH FLOW =====================================================================
 Step    548 Time=  2.66500E+01 Dt=  5.00000E-02 [y] snes_conv_reason:   11
  newton =   1 [     555] linear =   114 [     59047] cuts =  0 [   1]
  --> max chng: dpmx=   2.3283E-10 dtmpmx=   9.0735E-11

== TH FLOW =====================================================================
 Step    549 Time=  2.67000E+01 Dt=  5.00000E-02 [y] snes_conv_reason:   11
  newton =   1 [     556] linear =   100 [     59147] cuts =  0 [   1]
  --> max chng: dpmx=   2.3283E-10 dtmpmx=   8.9036E-11

== TH FLOW =====================================================================
 Step    550 Time=  2.67500E+01 Dt=  5.00000E-02 [y] snes_conv_reason:   11
  newton =   1 [     557] linear =   103 [     59250] cuts =  0 [   1]
  --> max chng: dpmx=   2.3283E-10 dtmpmx=   9.0948E-11

== TH FLOW =====================================================================
 Step    551 Time=  2.68000E+01 Dt=  5.00000E-02 [y] snes_conv_reason:   11
  newton =   1 [     558] linear =    77 [     59327] cuts =  0 [   1]
  --> max chng: dpmx=   2.3283E-10 dtmpmx=   7.9748E-11

== TH FLOW =====================================================================
 Step    552 Time=  2.68500E+01 Dt=  5.00000E-02 [y] snes_conv_reason:   11
  newton =   1 [     559] linear =    83 [     59410] cuts =  0 [   1]
  --> max chng: dpmx=   2.3283E-10 dtmpmx=   8.4766E-11

== TH FLOW =====================================================================
 Step    553 Time=  2.69000E+01 Dt=  5.00000E-02 [y] snes_conv_reason:   11
  newton =   1 [     560] linear =   101 [     59511] cuts =  0 [   1]
  --> max chng: dpmx=   2.3283E-10 dtmpmx=   8.9909E-11

== TH FLOW =====================================================================
 Step    554 Time=  2.69500E+01 Dt=  5.00000E-02 [y] snes_conv_reason:   11
  newton =   1 [     561] linear =    94 [     59605] cuts =  0 [   1]
  --> max chng: dpmx=   2.3283E-10 dtmpmx=   8.7704E-11

== TH FLOW =====================================================================
 Step    555 Time=  2.70000E+01 Dt=  5.00000E-02 [y] snes_conv_reason:   11
  newton =   1 [     562] linear =   104 [     59709] cuts =  0 [   1]
  --> max chng: dpmx=   2.3283E-10 dtmpmx=   9.1427E-11

== TH FLOW =====================================================================
 Step    556 Time=  2.70500E+01 Dt=  5.00000E-02 [y] snes_conv_reason:   11
  newton =   1 [     563] linear =    92 [     59801] cuts =  0 [   1]
  --> max chng: dpmx=   2.3283E-10 dtmpmx=   9.7238E-11

== TH FLOW =====================================================================
 Step    557 Time=  2.71000E+01 Dt=  5.00000E-02 [y] snes_conv_reason:   11
  newton =   1 [     564] linear =    68 [     59869] cuts =  0 [   1]
  --> max chng: dpmx=   2.3283E-10 dtmpmx=   8.4714E-11

== TH FLOW =====================================================================
 Step    558 Time=  2.71500E+01 Dt=  5.00000E-02 [y] snes_conv_reason:   11
  newton =   1 [     565] linear =    87 [     59956] cuts =  0 [   1]
  --> max chng: dpmx=   2.3283E-10 dtmpmx=   8.9965E-11

== TH FLOW =====================================================================
 Step    559 Time=  2.72000E+01 Dt=  5.00000E-02 [y] snes_conv_reason:   11
  newton =   1 [     566] linear =   104 [     60060] cuts =  0 [   1]
  --> max chng: dpmx=   2.3283E-10 dtmpmx=   8.7827E-11

== TH FLOW =====================================================================
 Step    560 Time=  2.72500E+01 Dt=  5.00000E-02 [y] snes_conv_reason:   11
  newton =   1 [     567] linear =   119 [     60179] cuts =  0 [   1]
  --> max chng: dpmx=   2.3283E-10 dtmpmx=   8.0414E-11

== TH FLOW =====================================================================
 Step    561 Time=  2.73000E+01 Dt=  5.00000E-02 [y] snes_conv_reason:   11
  newton =   1 [     568] linear =   110 [     60289] cuts =  0 [   1]
  --> max chng: dpmx=   2.3283E-10 dtmpmx=   7.9858E-11

== TH FLOW =====================================================================
 Step    562 Time=  2.73500E+01 Dt=  5.00000E-02 [y] snes_conv_reason:   11
  newton =   1 [     569] linear =    91 [     60380] cuts =  0 [   1]
  --> max chng: dpmx=   2.3283E-10 dtmpmx=   9.0193E-11

== TH FLOW =====================================================================
 Step    563 Time=  2.74000E+01 Dt=  5.00000E-02 [y] snes_conv_reason:   11
  newton =   1 [     570] linear =    93 [     60473] cuts =  0 [   1]
  --> max chng: dpmx=   2.3283E-10 dtmpmx=   9.1902E-11

== TH FLOW =====================================================================
 Step    564 Time=  2.74500E+01 Dt=  5.00000E-02 [y] snes_conv_reason:   11
  newton =   1 [     571] linear =    60 [     60533] cuts =  0 [   1]
  --> max chng: dpmx=   2.3283E-10 dtmpmx=   7.9451E-11

== TH FLOW =====================================================================
 Step    565 Time=  2.75000E+01 Dt=  5.00000E-02 [y] snes_conv_reason:   11
  newton =   1 [     572] linear =   114 [     60647] cuts =  0 [   1]
  --> max chng: dpmx=   2.3283E-10 dtmpmx=   7.5177E-11

 Wall Clock Time:  9.0199E+01 [sec]   1.5033E+00 [min]   2.5055E-02 [hr]
