
===================
  PFLOTRAN v3.0.1
===================

 Extent of Gridded Domain
  X: 2.5000000000000000 - 97.500000000000000
  Y: 2.5000000000000000 - 1277.5000000000000
  Z: 2.5000000000000000 - 2.5000000000000000


=+=+=+=+=+=+=+=+=+=+=+=+=+=+=+=+=+=+=+=+=+=+=+=+=+=+=+=+=+=+=+=+=+=+=+=+=+=+=+=+

  Initial Condition

--------------------------------------------------------------------------------
          Flow Condition:   initial
                  Region:   all
--------------------------------------------------------------------------------

  Flow Condition: initial
    Synchronize time with update: no
    Time units: yr
    Length units: m
      Datum:
        Dataset: Unnamed Ascii Dataset
          Type: dataset_ascii_type
          Transient: no
          Array Rank:  3

    Sub Condition: pressure
      Type: hydrostatic
      Gradient:
        Dataset: Unnamed Ascii Dataset
          Type: dataset_ascii_type
          Transient: no
          Array Rank:  3
      Data:
        Dataset: Unnamed Ascii Dataset
          Type: dataset_ascii_type
          Transient: no
          Array Rank:  1

    Sub Condition: temperature
      Type: dirichlet
      Gradient:
      Data:
        Dataset: Unnamed Ascii Dataset
          Type: dataset_ascii_type
          Transient: no
          Array Rank:  1

--------------------------------------------------------------------------------

=+=+=+=+=+=+=+=+=+=+=+=+=+=+=+=+=+=+=+=+=+=+=+=+=+=+=+=+=+=+=+=+=+=+=+=+=+=+=+=+

  Boundary Condition

--------------------------------------------------------------------------------
          Flow Condition:   initial
                  Region:   north
--------------------------------------------------------------------------------

  Flow Condition: initial
    Synchronize time with update: no
    Time units: yr
    Length units: m
      Datum:
        Dataset: Unnamed Ascii Dataset
          Type: dataset_ascii_type
          Transient: no
          Array Rank:  3

    Sub Condition: pressure
      Type: hydrostatic
      Gradient:
        Dataset: Unnamed Ascii Dataset
          Type: dataset_ascii_type
          Transient: no
          Array Rank:  3
      Data:
        Dataset: Unnamed Ascii Dataset
          Type: dataset_ascii_type
          Transient: no
          Array Rank:  1

    Sub Condition: temperature
      Type: dirichlet
      Gradient:
      Data:
        Dataset: Unnamed Ascii Dataset
          Type: dataset_ascii_type
          Transient: no
          Array Rank:  1

--------------------------------------------------------------------------------

=+=+=+=+=+=+=+=+=+=+=+=+=+=+=+=+=+=+=+=+=+=+=+=+=+=+=+=+=+=+=+=+=+=+=+=+=+=+=+=+

  Boundary Condition

--------------------------------------------------------------------------------
          Flow Condition:   initial
                  Region:   south
--------------------------------------------------------------------------------

  Flow Condition: initial
    Synchronize time with update: no
    Time units: yr
    Length units: m
      Datum:
        Dataset: Unnamed Ascii Dataset
          Type: dataset_ascii_type
          Transient: no
          Array Rank:  3

    Sub Condition: pressure
      Type: hydrostatic
      Gradient:
        Dataset: Unnamed Ascii Dataset
          Type: dataset_ascii_type
          Transient: no
          Array Rank:  3
      Data:
        Dataset: Unnamed Ascii Dataset
          Type: dataset_ascii_type
          Transient: no
          Array Rank:  1

    Sub Condition: temperature
      Type: dirichlet
      Gradient:
      Data:
        Dataset: Unnamed Ascii Dataset
          Type: dataset_ascii_type
          Transient: no
          Array Rank:  1

--------------------------------------------------------------------------------

=+=+=+=+=+=+=+=+=+=+=+=+=+=+=+=+=+=+=+=+=+=+=+=+=+=+=+=+=+=+=+=+=+=+=+=+=+=+=+=+

  Source Sink

--------------------------------------------------------------------------------
          Flow Condition:   injection
                  Region:   heatpump_inject0
--------------------------------------------------------------------------------

  Flow Condition: injection
    Synchronize time with update: no
    Time units: yr
    Length units: m
      Datum:

    Sub Condition: rate
      Type: scaled volumetric rate
      Gradient:
      Data:
        Dataset: Unnamed Ascii Dataset
          Type: dataset_ascii_type
          Is transient?: yes
          Number of times:      3
          Is cyclic?: no
          Buffer:
            Rank:  2
            Dims:    1   3
            Buffer Slice Size:   0
          Array Rank:  1

    Sub Condition: temperature
      Type: dirichlet
      Gradient:
      Data:
        Dataset: Unnamed Ascii Dataset
          Type: dataset_ascii_type
          Transient: no
          Array Rank:  1

--------------------------------------------------------------------------------

 Requested processors =    32

FLOW Time Stepper
                 acceleration: on
       acceleration threshold: 5
       number of ramp entries: 5
                ramp entry #1: 2.0000
                ramp entry #2: 2.0000
                ramp entry #3: 2.0000
                ramp entry #4: 2.0000
                ramp entry #5: 2.0000
                ramp entry #6: 1.8000
                ramp entry #7: 1.6000
                ramp entry #8: 1.4000
                ramp entry #9: 1.2000
               ramp entry #10: 1.0000
               ramp entry #11: 1.0000
               ramp entry #12: 1.0000
               ramp entry #13: 1.0000
      maximum number of steps: 999999
constant time steps threshold: 5
       maximum number of cuts: 16
             reduction factor: 5.000000E-01
        maximum growth factor: 2.000000E+00

FLOW Newton Solver
                         atol: 1.000000E-50
                         rtol: 1.000000E-03
                         stol: 1.000000E-08
                         dtol: 1.000000E+04
                      maxnorm: 1.000000E+20
                    inftolres: -9.990000E+02
                    inftolupd: 1.000000E+00
                 inftolrelupd: -9.990000E+02
                 inftolsclres: -9.990000E+02
                     max iter: 50
                     min iter: 1
                         maxf: 10000
                  matrix type: baij
         precond. matrix type: baij
               inexact newton: off
            print convergence: on
   print detailed convergence: off
          check infinity norm: on

FLOW Linear Solver
                       solver: bcgs
               preconditioner: bjacobi
                         atol: 1.000000E-50
                         rtol: 1.000000E-05
                         dtol: 1.000000E+04
            maximum iteration: 10000

== TH FLOW =====================================================================
 Step      1 Time=  1.00000E-05 Dt=  1.00000E-05 [y] snes_conv_reason:   11
  newton =   1 [       1] linear =   108 [       108] cuts =  0 [   0]
  --> max chng: dpmx=   5.0393E-02 dtmpmx=   2.4828E-09

== TH FLOW =====================================================================
 Step      2 Time=  3.00000E-05 Dt=  2.00000E-05 [y] snes_conv_reason:   11
  newton =   1 [       2] linear =   121 [       229] cuts =  0 [   0]
  --> max chng: dpmx=   3.9703E-02 dtmpmx=   4.8892E-09

== TH FLOW =====================================================================
 Step      3 Time=  7.00000E-05 Dt=  4.00000E-05 [y] snes_conv_reason:   11
  newton =   1 [       3] linear =   116 [       345] cuts =  0 [   0]
  --> max chng: dpmx=   1.8481E-02 dtmpmx=   9.7021E-09

== TH FLOW =====================================================================
 Step      4 Time=  1.50000E-04 Dt=  8.00000E-05 [y] snes_conv_reason:   11
  newton =   1 [       4] linear =   116 [       461] cuts =  0 [   0]
  --> max chng: dpmx=   4.8225E-03 dtmpmx=   1.9364E-08

== TH FLOW =====================================================================
 Step      5 Time=  3.10000E-04 Dt=  1.60000E-04 [y] snes_conv_reason:   11
  newton =   1 [       5] linear =   119 [       580] cuts =  0 [   0]
  --> max chng: dpmx=   6.7213E-04 dtmpmx=   3.8717E-08

== TH FLOW =====================================================================
 Step      6 Time=  6.30000E-04 Dt=  3.20000E-04 [y] snes_conv_reason:   11
  newton =   1 [       6] linear =   123 [       703] cuts =  0 [   0]
  --> max chng: dpmx=   4.8381E-05 dtmpmx=   7.7435E-08

== TH FLOW =====================================================================
 Step      7 Time=  1.27000E-03 Dt=  6.40000E-04 [y] snes_conv_reason:   11
  newton =   1 [       7] linear =   125 [       828] cuts =  0 [   0]
  --> max chng: dpmx=   1.4894E-06 dtmpmx=   1.5487E-07

== TH FLOW =====================================================================
 Step      8 Time=  2.55000E-03 Dt=  1.28000E-03 [y] snes_conv_reason:   11
  newton =   1 [       8] linear =   118 [       946] cuts =  0 [   0]
  --> max chng: dpmx=   1.2150E-06 dtmpmx=   3.0974E-07

== TH FLOW =====================================================================
 Step      9 Time=  5.11000E-03 Dt=  2.56000E-03 [y] snes_conv_reason:   11
  newton =   1 [       9] linear =   132 [      1078] cuts =  0 [   0]
  --> max chng: dpmx=   2.4771E-06 dtmpmx=   6.1948E-07

== TH FLOW =====================================================================
 Step     10 Time=  1.02300E-02 Dt=  5.12000E-03 [y] snes_conv_reason:   11
  newton =   1 [      10] linear =   122 [      1200] cuts =  0 [   0]
  --> max chng: dpmx=   5.1346E-06 dtmpmx=   1.2390E-06

== TH FLOW =====================================================================
 Step     11 Time=  2.04700E-02 Dt=  1.02400E-02 [y] snes_conv_reason:   11
  newton =   1 [      11] linear =   133 [      1333] cuts =  0 [   0]
  --> max chng: dpmx=   1.0971E-05 dtmpmx=   2.4779E-06

== TH FLOW =====================================================================
 Step     12 Time=  4.09500E-02 Dt=  2.04800E-02 [y] snes_conv_reason:   11
  newton =   1 [      12] linear =   127 [      1460] cuts =  0 [   0]
  --> max chng: dpmx=   2.4805E-05 dtmpmx=   4.9558E-06

== TH FLOW =====================================================================
 Step     13 Time=  8.19100E-02 Dt=  4.09600E-02 [y] snes_conv_reason:   11
  newton =   1 [      13] linear =   123 [      1583] cuts =  0 [   0]
  --> max chng: dpmx=   6.0884E-05 dtmpmx=   9.9116E-06

== TH FLOW =====================================================================
 Step     14 Time=  1.00000E-01 Dt=  1.80900E-02 [y] snes_conv_reason:   11
  newton =   1 [      14] linear =   128 [      1711] cuts =  0 [   0]
  --> max chng: dpmx=   2.9144E-05 dtmpmx=   4.3775E-06

== TH FLOW =====================================================================
 Step     15 Time=  1.50000E-01 Dt=  5.00000E-02 [y] snes_conv_reason:   11
  newton =   1 [      15] linear =   132 [      1843] cuts =  0 [   0]
  --> max chng: dpmx=   9.7156E-05 dtmpmx=   1.2099E-05

== TH FLOW =====================================================================
 Step     16 Time=  2.00000E-01 Dt=  5.00000E-02 [y] snes_conv_reason:   11
  newton =   1 [      16] linear =   131 [      1974] cuts =  0 [   0]
  --> max chng: dpmx=   1.1374E-04 dtmpmx=   1.2099E-05

== TH FLOW =====================================================================
 Step     17 Time=  2.50000E-01 Dt=  5.00000E-02 [y] snes_conv_reason:    3
  newton =   3 [      19] linear =   396 [      2370] cuts =  0 [   0]
  --> max chng: dpmx=   1.3732E+03 dtmpmx=   3.5049E+00

== TH FLOW =====================================================================
 Step     18 Time=  3.00000E-01 Dt=  5.00000E-02 [y] snes_conv_reason:   11
  newton =   2 [      21] linear =   265 [      2635] cuts =  0 [   0]
  --> max chng: dpmx=   9.0406E+00 dtmpmx=   1.3620E+00

== TH FLOW =====================================================================
 Step     19 Time=  3.50000E-01 Dt=  5.00000E-02 [y] snes_conv_reason:   11
  newton =   2 [      23] linear =   273 [      2908] cuts =  0 [   0]
  --> max chng: dpmx=   4.5936E+00 dtmpmx=   8.8362E-01

== TH FLOW =====================================================================
 Step     20 Time=  4.00000E-01 Dt=  5.00000E-02 [y] snes_conv_reason:   11
  newton =   2 [      25] linear =   249 [      3157] cuts =  0 [   0]
  --> max chng: dpmx=   3.2016E+00 dtmpmx=   7.2535E-01

== TH FLOW =====================================================================
 Step     21 Time=  4.50000E-01 Dt=  5.00000E-02 [y] snes_conv_reason:   11
  newton =   2 [      27] linear =   255 [      3412] cuts =  0 [   0]
  --> max chng: dpmx=   3.0542E+00 dtmpmx=   6.0362E-01

== TH FLOW =====================================================================
 Step     22 Time=  5.00000E-01 Dt=  5.00000E-02 [y] snes_conv_reason:    3
  newton =   1 [      28] linear =   137 [      3549] cuts =  0 [   0]
  --> max chng: dpmx=   2.9364E+00 dtmpmx=   5.3026E-01

== TH FLOW =====================================================================
 Step     23 Time=  5.50000E-01 Dt=  5.00000E-02 [y] snes_conv_reason:    3
  newton =   1 [      29] linear =   137 [      3686] cuts =  0 [   0]
  --> max chng: dpmx=   2.8160E+00 dtmpmx=   4.7344E-01

== TH FLOW =====================================================================
 Step     24 Time=  6.00000E-01 Dt=  5.00000E-02 [y] snes_conv_reason:    3
  newton =   1 [      30] linear =   138 [      3824] cuts =  0 [   0]
  --> max chng: dpmx=   2.7527E+00 dtmpmx=   4.3483E-01

== TH FLOW =====================================================================
 Step     25 Time=  6.50000E-01 Dt=  5.00000E-02 [y] snes_conv_reason:    3
  newton =   1 [      31] linear =   133 [      3957] cuts =  0 [   0]
  --> max chng: dpmx=   2.6878E+00 dtmpmx=   3.9704E-01

== TH FLOW =====================================================================
 Step     26 Time=  7.00000E-01 Dt=  5.00000E-02 [y] snes_conv_reason:    3
  newton =   1 [      32] linear =   133 [      4090] cuts =  0 [   0]
  --> max chng: dpmx=   2.6242E+00 dtmpmx=   3.7575E-01

== TH FLOW =====================================================================
 Step     27 Time=  7.50000E-01 Dt=  5.00000E-02 [y] snes_conv_reason:    3
  newton =   1 [      33] linear =   136 [      4226] cuts =  0 [   0]
  --> max chng: dpmx=   2.5862E+00 dtmpmx=   3.4548E-01

== TH FLOW =====================================================================
 Step     28 Time=  8.00000E-01 Dt=  5.00000E-02 [y] snes_conv_reason:    3
  newton =   1 [      34] linear =   137 [      4363] cuts =  0 [   0]
  --> max chng: dpmx=   2.5381E+00 dtmpmx=   3.3397E-01

== TH FLOW =====================================================================
 Step     29 Time=  8.50000E-01 Dt=  5.00000E-02 [y] snes_conv_reason:    3
  newton =   1 [      35] linear =   133 [      4496] cuts =  0 [   0]
  --> max chng: dpmx=   2.5027E+00 dtmpmx=   3.1446E-01

== TH FLOW =====================================================================
 Step     30 Time=  9.00000E-01 Dt=  5.00000E-02 [y] snes_conv_reason:    3
  newton =   1 [      36] linear =   133 [      4629] cuts =  0 [   0]
  --> max chng: dpmx=   2.4683E+00 dtmpmx=   3.0197E-01

== TH FLOW =====================================================================
 Step     31 Time=  9.50000E-01 Dt=  5.00000E-02 [y] snes_conv_reason:    3
  newton =   1 [      37] linear =   136 [      4765] cuts =  0 [   0]
  --> max chng: dpmx=   2.4340E+00 dtmpmx=   2.8986E-01

== TH FLOW =====================================================================
 Step     32 Time=  1.00000E+00 Dt=  5.00000E-02 [y] snes_conv_reason:    3
  newton =   1 [      38] linear =   136 [      4901] cuts =  0 [   0]
  --> max chng: dpmx=   2.4087E+00 dtmpmx=   2.7620E-01

== TH FLOW =====================================================================
 Step     33 Time=  1.05000E+00 Dt=  5.00000E-02 [y] snes_conv_reason:    3
  newton =   1 [      39] linear =   138 [      5039] cuts =  0 [   0]
  --> max chng: dpmx=   2.3767E+00 dtmpmx=   2.6907E-01

== TH FLOW =====================================================================
 Step     34 Time=  1.10000E+00 Dt=  5.00000E-02 [y] snes_conv_reason:    3
  newton =   1 [      40] linear =   127 [      5166] cuts =  0 [   0]
  --> max chng: dpmx=   2.3567E+00 dtmpmx=   2.5748E-01

== TH FLOW =====================================================================
 Step     35 Time=  1.15000E+00 Dt=  5.00000E-02 [y] snes_conv_reason:    3
  newton =   1 [      41] linear =   136 [      5302] cuts =  0 [   0]
  --> max chng: dpmx=   2.3303E+00 dtmpmx=   2.5107E-01

== TH FLOW =====================================================================
 Step     36 Time=  1.20000E+00 Dt=  5.00000E-02 [y] snes_conv_reason:    3
  newton =   1 [      42] linear =   136 [      5438] cuts =  0 [   0]
  --> max chng: dpmx=   2.3120E+00 dtmpmx=   2.4347E-01

== TH FLOW =====================================================================
 Step     37 Time=  1.25000E+00 Dt=  5.00000E-02 [y] snes_conv_reason:    3
  newton =   1 [      43] linear =   138 [      5576] cuts =  0 [   0]
  --> max chng: dpmx=   2.2895E+00 dtmpmx=   2.3520E-01

== TH FLOW =====================================================================
 Step     38 Time=  1.30000E+00 Dt=  5.00000E-02 [y] snes_conv_reason:    3
  newton =   1 [      44] linear =   140 [      5716] cuts =  0 [   0]
  --> max chng: dpmx=   2.2711E+00 dtmpmx=   2.3057E-01

== TH FLOW =====================================================================
 Step     39 Time=  1.35000E+00 Dt=  5.00000E-02 [y] snes_conv_reason:    3
  newton =   1 [      45] linear =   140 [      5856] cuts =  0 [   0]
  --> max chng: dpmx=   2.2533E+00 dtmpmx=   2.2295E-01

== TH FLOW =====================================================================
 Step     40 Time=  1.40000E+00 Dt=  5.00000E-02 [y] snes_conv_reason:    3
  newton =   1 [      46] linear =   138 [      5994] cuts =  0 [   0]
  --> max chng: dpmx=   2.2347E+00 dtmpmx=   2.1866E-01

== TH FLOW =====================================================================
 Step     41 Time=  1.45000E+00 Dt=  5.00000E-02 [y] snes_conv_reason:    3
  newton =   1 [      47] linear =   137 [      6131] cuts =  0 [   0]
  --> max chng: dpmx=   2.2201E+00 dtmpmx=   2.1354E-01

== TH FLOW =====================================================================
 Step     42 Time=  1.50000E+00 Dt=  5.00000E-02 [y] snes_conv_reason:    3
  newton =   1 [      48] linear =   137 [      6268] cuts =  0 [   0]
  --> max chng: dpmx=   2.2015E+00 dtmpmx=   2.0763E-01

== TH FLOW =====================================================================
 Step     43 Time=  1.55000E+00 Dt=  5.00000E-02 [y] snes_conv_reason:    3
  newton =   1 [      49] linear =   137 [      6405] cuts =  0 [   0]
  --> max chng: dpmx=   2.1900E+00 dtmpmx=   2.0448E-01

== TH FLOW =====================================================================
 Step     44 Time=  1.60000E+00 Dt=  5.00000E-02 [y] snes_conv_reason:    3
  newton =   1 [      50] linear =   134 [      6539] cuts =  0 [   0]
  --> max chng: dpmx=   2.1724E+00 dtmpmx=   1.9914E-01

== TH FLOW =====================================================================
 Step     45 Time=  1.65000E+00 Dt=  5.00000E-02 [y] snes_conv_reason:    3
  newton =   1 [      51] linear =   141 [      6680] cuts =  0 [   0]
  --> max chng: dpmx=   2.1619E+00 dtmpmx=   1.9580E-01

== TH FLOW =====================================================================
 Step     46 Time=  1.70000E+00 Dt=  5.00000E-02 [y] snes_conv_reason:    3
  newton =   1 [      52] linear =   138 [      6818] cuts =  0 [   0]
  --> max chng: dpmx=   2.1464E+00 dtmpmx=   1.9218E-01

== TH FLOW =====================================================================
 Step     47 Time=  1.75000E+00 Dt=  5.00000E-02 [y] snes_conv_reason:    3
  newton =   1 [      53] linear =   139 [      6957] cuts =  0 [   0]
  --> max chng: dpmx=   2.1363E+00 dtmpmx=   1.8752E-01

== TH FLOW =====================================================================
 Step     48 Time=  1.80000E+00 Dt=  5.00000E-02 [y] snes_conv_reason:    3
  newton =   1 [      54] linear =   139 [      7096] cuts =  0 [   0]
  --> max chng: dpmx=   2.1227E+00 dtmpmx=   1.8531E-01

== TH FLOW =====================================================================
 Step     49 Time=  1.85000E+00 Dt=  5.00000E-02 [y] snes_conv_reason:    3
  newton =   1 [      55] linear =   138 [      7234] cuts =  0 [   0]
  --> max chng: dpmx=   2.1127E+00 dtmpmx=   1.8139E-01

== TH FLOW =====================================================================
 Step     50 Time=  1.90000E+00 Dt=  5.00000E-02 [y] snes_conv_reason:    3
  newton =   1 [      56] linear =   137 [      7371] cuts =  0 [   0]
  --> max chng: dpmx=   2.0997E+00 dtmpmx=   1.7858E-01

== TH FLOW =====================================================================
 Step     51 Time=  1.95000E+00 Dt=  5.00000E-02 [y] snes_conv_reason:    3
  newton =   1 [      57] linear =   132 [      7503] cuts =  0 [   0]
  --> max chng: dpmx=   2.0907E+00 dtmpmx=   1.7593E-01

== TH FLOW =====================================================================
 Step     52 Time=  2.00000E+00 Dt=  5.00000E-02 [y] snes_conv_reason:    3
  newton =   1 [      58] linear =   137 [      7640] cuts =  0 [   0]
  --> max chng: dpmx=   2.0794E+00 dtmpmx=   1.7203E-01

== TH FLOW =====================================================================
 Step     53 Time=  2.05000E+00 Dt=  5.00000E-02 [y] snes_conv_reason:    3
  newton =   1 [      59] linear =   139 [      7779] cuts =  0 [   0]
  --> max chng: dpmx=   2.0696E+00 dtmpmx=   1.7044E-01

== TH FLOW =====================================================================
 Step     54 Time=  2.10000E+00 Dt=  5.00000E-02 [y] snes_conv_reason:    3
  newton =   1 [      60] linear =   139 [      7918] cuts =  0 [   0]
  --> max chng: dpmx=   2.0592E+00 dtmpmx=   1.6747E-01

== TH FLOW =====================================================================
 Step     55 Time=  2.15000E+00 Dt=  5.00000E-02 [y] snes_conv_reason:    3
  newton =   1 [      61] linear =   132 [      8050] cuts =  0 [   0]
  --> max chng: dpmx=   2.0495E+00 dtmpmx=   1.6499E-01

== TH FLOW =====================================================================
 Step     56 Time=  2.20000E+00 Dt=  5.00000E-02 [y] snes_conv_reason:    3
  newton =   1 [      62] linear =   140 [      8190] cuts =  0 [   0]
  --> max chng: dpmx=   2.0409E+00 dtmpmx=   1.6300E-01

== TH FLOW =====================================================================
 Step     57 Time=  2.25000E+00 Dt=  5.00000E-02 [y] snes_conv_reason:    3
  newton =   1 [      63] linear =   138 [      8328] cuts =  0 [   0]
  --> max chng: dpmx=   2.0318E+00 dtmpmx=   1.5981E-01

== TH FLOW =====================================================================
 Step     58 Time=  2.30000E+00 Dt=  5.00000E-02 [y] snes_conv_reason:    3
  newton =   1 [      64] linear =   139 [      8467] cuts =  0 [   0]
  --> max chng: dpmx=   2.0225E+00 dtmpmx=   1.5846E-01

== TH FLOW =====================================================================
 Step     59 Time=  2.35000E+00 Dt=  5.00000E-02 [y] snes_conv_reason:    3
  newton =   1 [      65] linear =   139 [      8606] cuts =  0 [   0]
  --> max chng: dpmx=   2.0140E+00 dtmpmx=   1.5616E-01

== TH FLOW =====================================================================
 Step     60 Time=  2.40000E+00 Dt=  5.00000E-02 [y] snes_conv_reason:    3
  newton =   1 [      66] linear =   137 [      8743] cuts =  0 [   0]
  --> max chng: dpmx=   2.0051E+00 dtmpmx=   1.5391E-01

== TH FLOW =====================================================================
 Step     61 Time=  2.45000E+00 Dt=  5.00000E-02 [y] snes_conv_reason:    3
  newton =   1 [      67] linear =   136 [      8879] cuts =  0 [   0]
  --> max chng: dpmx=   1.9976E+00 dtmpmx=   1.5238E-01

== TH FLOW =====================================================================
 Step     62 Time=  2.50000E+00 Dt=  5.00000E-02 [y] snes_conv_reason:    3
  newton =   1 [      68] linear =   136 [      9015] cuts =  0 [   0]
  --> max chng: dpmx=   1.9889E+00 dtmpmx=   1.4985E-01

== TH FLOW =====================================================================
 Step     63 Time=  2.55000E+00 Dt=  5.00000E-02 [y] snes_conv_reason:    3
  newton =   1 [      69] linear =   129 [      9144] cuts =  0 [   0]
  --> max chng: dpmx=   1.9809E+00 dtmpmx=   1.4852E-01

== TH FLOW =====================================================================
 Step     64 Time=  2.60000E+00 Dt=  5.00000E-02 [y] snes_conv_reason:    3
  newton =   1 [      70] linear =   136 [      9280] cuts =  0 [   0]
  --> max chng: dpmx=   1.9738E+00 dtmpmx=   1.4670E-01

== TH FLOW =====================================================================
 Step     65 Time=  2.65000E+00 Dt=  5.00000E-02 [y] snes_conv_reason:    3
  newton =   1 [      71] linear =   131 [      9411] cuts =  0 [   0]
  --> max chng: dpmx=   1.9652E+00 dtmpmx=   1.4463E-01

== TH FLOW =====================================================================
 Step     66 Time=  2.70000E+00 Dt=  5.00000E-02 [y] snes_conv_reason:    3
  newton =   1 [      72] linear =   135 [      9546] cuts =  0 [   0]
  --> max chng: dpmx=   1.9582E+00 dtmpmx=   1.4344E-01

== TH FLOW =====================================================================
 Step     67 Time=  2.75000E+00 Dt=  5.00000E-02 [y] snes_conv_reason:    3
  newton =   1 [      73] linear =   135 [      9681] cuts =  0 [   0]
  --> max chng: dpmx=   1.9505E+00 dtmpmx=   1.4139E-01

== TH FLOW =====================================================================
 Step     68 Time=  2.80000E+00 Dt=  5.00000E-02 [y] snes_conv_reason:    3
  newton =   1 [      74] linear =   135 [      9816] cuts =  0 [   0]
  --> max chng: dpmx=   1.9438E+00 dtmpmx=   1.4010E-01

== TH FLOW =====================================================================
 Step     69 Time=  2.85000E+00 Dt=  5.00000E-02 [y] snes_conv_reason:    3
  newton =   1 [      75] linear =   133 [      9949] cuts =  0 [   0]
  --> max chng: dpmx=   1.9360E+00 dtmpmx=   1.3864E-01

== TH FLOW =====================================================================
 Step     70 Time=  2.90000E+00 Dt=  5.00000E-02 [y] snes_conv_reason:    3
  newton =   1 [      76] linear =   135 [     10084] cuts =  0 [   0]
  --> max chng: dpmx=   1.9294E+00 dtmpmx=   1.3671E-01

== TH FLOW =====================================================================
 Step     71 Time=  2.95000E+00 Dt=  5.00000E-02 [y] snes_conv_reason:    3
  newton =   1 [      77] linear =   130 [     10214] cuts =  0 [   0]
  --> max chng: dpmx=   1.9221E+00 dtmpmx=   1.3578E-01

== TH FLOW =====================================================================
 Step     72 Time=  3.00000E+00 Dt=  5.00000E-02 [y] snes_conv_reason:    3
  newton =   1 [      78] linear =   135 [     10349] cuts =  0 [   0]
  --> max chng: dpmx=   1.9152E+00 dtmpmx=   1.3410E-01

== TH FLOW =====================================================================
 Step     73 Time=  3.05000E+00 Dt=  5.00000E-02 [y] snes_conv_reason:    3
  newton =   1 [      79] linear =   135 [     10484] cuts =  0 [   0]
  --> max chng: dpmx=   1.9086E+00 dtmpmx=   1.3284E-01

== TH FLOW =====================================================================
 Step     74 Time=  3.10000E+00 Dt=  5.00000E-02 [y] snes_conv_reason:    3
  newton =   1 [      80] linear =   136 [     10620] cuts =  0 [   0]
  --> max chng: dpmx=   1.9019E+00 dtmpmx=   1.3166E-01

== TH FLOW =====================================================================
 Step     75 Time=  3.15000E+00 Dt=  5.00000E-02 [y] snes_conv_reason:    3
  newton =   1 [      81] linear =   136 [     10756] cuts =  0 [   0]
  --> max chng: dpmx=   1.8955E+00 dtmpmx=   1.2984E-01

== TH FLOW =====================================================================
 Step     76 Time=  3.20000E+00 Dt=  5.00000E-02 [y] snes_conv_reason:    3
  newton =   1 [      82] linear =   135 [     10891] cuts =  0 [   0]
  --> max chng: dpmx=   1.8883E+00 dtmpmx=   1.2911E-01

== TH FLOW =====================================================================
 Step     77 Time=  3.25000E+00 Dt=  5.00000E-02 [y] snes_conv_reason:    3
  newton =   1 [      83] linear =   137 [     11028] cuts =  0 [   0]
  --> max chng: dpmx=   1.8828E+00 dtmpmx=   1.2772E-01

== TH FLOW =====================================================================
 Step     78 Time=  3.30000E+00 Dt=  5.00000E-02 [y] snes_conv_reason:    3
  newton =   1 [      84] linear =   133 [     11161] cuts =  0 [   0]
  --> max chng: dpmx=   1.8757E+00 dtmpmx=   1.2649E-01

== TH FLOW =====================================================================
 Step     79 Time=  3.35000E+00 Dt=  5.00000E-02 [y] snes_conv_reason:    3
  newton =   1 [      85] linear =   134 [     11295] cuts =  0 [   0]
  --> max chng: dpmx=   1.8700E+00 dtmpmx=   1.2553E-01

== TH FLOW =====================================================================
 Step     80 Time=  3.40000E+00 Dt=  5.00000E-02 [y] snes_conv_reason:    3
  newton =   1 [      86] linear =   133 [     11428] cuts =  0 [   0]
  --> max chng: dpmx=   1.8629E+00 dtmpmx=   1.2396E-01

== TH FLOW =====================================================================
 Step     81 Time=  3.45000E+00 Dt=  5.00000E-02 [y] snes_conv_reason:    3
  newton =   1 [      87] linear =   133 [     11561] cuts =  0 [   0]
  --> max chng: dpmx=   1.8569E+00 dtmpmx=   1.2323E-01

== TH FLOW =====================================================================
 Step     82 Time=  3.50000E+00 Dt=  5.00000E-02 [y] snes_conv_reason:    3
  newton =   1 [      88] linear =   127 [     11688] cuts =  0 [   0]
  --> max chng: dpmx=   1.8513E+00 dtmpmx=   1.2207E-01

== TH FLOW =====================================================================
 Step     83 Time=  3.55000E+00 Dt=  5.00000E-02 [y] snes_conv_reason:    3
  newton =   1 [      89] linear =   127 [     11815] cuts =  0 [   0]
  --> max chng: dpmx=   1.8454E+00 dtmpmx=   1.2087E-01

== TH FLOW =====================================================================
 Step     84 Time=  3.60000E+00 Dt=  5.00000E-02 [y] snes_conv_reason:    3
  newton =   1 [      90] linear =   135 [     11950] cuts =  0 [   0]
  --> max chng: dpmx=   1.8391E+00 dtmpmx=   1.2008E-01

== TH FLOW =====================================================================
 Step     85 Time=  3.65000E+00 Dt=  5.00000E-02 [y] snes_conv_reason:    3
  newton =   1 [      91] linear =   135 [     12085] cuts =  0 [   0]
  --> max chng: dpmx=   1.8329E+00 dtmpmx=   1.1875E-01

== TH FLOW =====================================================================
 Step     86 Time=  3.70000E+00 Dt=  5.00000E-02 [y] snes_conv_reason:    3
  newton =   1 [      92] linear =   136 [     12221] cuts =  0 [   0]
  --> max chng: dpmx=   1.8270E+00 dtmpmx=   1.1800E-01

== TH FLOW =====================================================================
 Step     87 Time=  3.75000E+00 Dt=  5.00000E-02 [y] snes_conv_reason:    3
  newton =   1 [      93] linear =   130 [     12351] cuts =  0 [   0]
  --> max chng: dpmx=   1.8218E+00 dtmpmx=   1.1702E-01

== TH FLOW =====================================================================
 Step     88 Time=  3.80000E+00 Dt=  5.00000E-02 [y] snes_conv_reason:    3
  newton =   1 [      94] linear =   133 [     12484] cuts =  0 [   0]
  --> max chng: dpmx=   1.8147E+00 dtmpmx=   1.1585E-01

== TH FLOW =====================================================================
 Step     89 Time=  3.85000E+00 Dt=  5.00000E-02 [y] snes_conv_reason:    3
  newton =   1 [      95] linear =   135 [     12619] cuts =  0 [   0]
  --> max chng: dpmx=   1.8101E+00 dtmpmx=   1.1520E-01

== TH FLOW =====================================================================
 Step     90 Time=  3.90000E+00 Dt=  5.00000E-02 [y] snes_conv_reason:    3
  newton =   1 [      96] linear =   136 [     12755] cuts =  0 [   0]
  --> max chng: dpmx=   1.8037E+00 dtmpmx=   1.1406E-01

== TH FLOW =====================================================================
 Step     91 Time=  3.95000E+00 Dt=  5.00000E-02 [y] snes_conv_reason:    3
  newton =   1 [      97] linear =   136 [     12891] cuts =  0 [   0]
  --> max chng: dpmx=   1.7984E+00 dtmpmx=   1.1330E-01

== TH FLOW =====================================================================
 Step     92 Time=  4.00000E+00 Dt=  5.00000E-02 [y] snes_conv_reason:    3
  newton =   1 [      98] linear =   132 [     13023] cuts =  0 [   0]
  --> max chng: dpmx=   1.7922E+00 dtmpmx=   1.1247E-01

== TH FLOW =====================================================================
 Step     93 Time=  4.05000E+00 Dt=  5.00000E-02 [y] snes_conv_reason:    3
  newton =   1 [      99] linear =   122 [     13145] cuts =  0 [   0]
  --> max chng: dpmx=   1.7874E+00 dtmpmx=   1.1133E-01

== TH FLOW =====================================================================
 Step     94 Time=  4.10000E+00 Dt=  5.00000E-02 [y] snes_conv_reason:    3
  newton =   1 [     100] linear =   125 [     13270] cuts =  0 [   0]
  --> max chng: dpmx=   1.7814E+00 dtmpmx=   1.1079E-01

== TH FLOW =====================================================================
 Step     95 Time=  4.15000E+00 Dt=  5.00000E-02 [y] snes_conv_reason:    3
  newton =   1 [     101] linear =   130 [     13400] cuts =  0 [   0]
  --> max chng: dpmx=   1.7761E+00 dtmpmx=   1.0981E-01

== TH FLOW =====================================================================
 Step     96 Time=  4.20000E+00 Dt=  5.00000E-02 [y] snes_conv_reason:    3
  newton =   1 [     102] linear =   138 [     13538] cuts =  0 [   0]
  --> max chng: dpmx=   1.7705E+00 dtmpmx=   1.0904E-01

== TH FLOW =====================================================================
 Step     97 Time=  4.25000E+00 Dt=  5.00000E-02 [y] snes_conv_reason:    3
  newton =   1 [     103] linear =   134 [     13672] cuts =  0 [   0]
  --> max chng: dpmx=   1.7657E+00 dtmpmx=   1.0834E-01

== TH FLOW =====================================================================
 Step     98 Time=  4.30000E+00 Dt=  5.00000E-02 [y] snes_conv_reason:    3
  newton =   1 [     104] linear =   136 [     13808] cuts =  0 [   0]
  --> max chng: dpmx=   1.7594E+00 dtmpmx=   1.0722E-01

== TH FLOW =====================================================================
 Step     99 Time=  4.35000E+00 Dt=  5.00000E-02 [y] snes_conv_reason:    3
  newton =   1 [     105] linear =   135 [     13943] cuts =  0 [   0]
  --> max chng: dpmx=   1.7546E+00 dtmpmx=   1.0678E-01

== TH FLOW =====================================================================
 Step    100 Time=  4.40000E+00 Dt=  5.00000E-02 [y] snes_conv_reason:    3
  newton =   1 [     106] linear =   135 [     14078] cuts =  0 [   0]
  --> max chng: dpmx=   1.7488E+00 dtmpmx=   1.0593E-01

== TH FLOW =====================================================================
 Step    101 Time=  4.45000E+00 Dt=  5.00000E-02 [y] snes_conv_reason:    3
  newton =   1 [     107] linear =   136 [     14214] cuts =  0 [   0]
  --> max chng: dpmx=   1.7437E+00 dtmpmx=   1.0516E-01

== TH FLOW =====================================================================
 Step    102 Time=  4.50000E+00 Dt=  5.00000E-02 [y] snes_conv_reason:    3
  newton =   1 [     108] linear =   128 [     14342] cuts =  0 [   0]
  --> max chng: dpmx=   1.7385E+00 dtmpmx=   1.0456E-01

== TH FLOW =====================================================================
 Step    103 Time=  4.55000E+00 Dt=  5.00000E-02 [y] snes_conv_reason:    3
  newton =   1 [     109] linear =   134 [     14476] cuts =  0 [   0]
  --> max chng: dpmx=   1.7336E+00 dtmpmx=   1.0358E-01

== TH FLOW =====================================================================
 Step    104 Time=  4.60000E+00 Dt=  5.00000E-02 [y] snes_conv_reason:    3
  newton =   1 [     110] linear =   133 [     14609] cuts =  0 [   0]
  --> max chng: dpmx=   1.7279E+00 dtmpmx=   1.0311E-01

== TH FLOW =====================================================================
 Step    105 Time=  4.65000E+00 Dt=  5.00000E-02 [y] snes_conv_reason:    3
  newton =   1 [     111] linear =   131 [     14740] cuts =  0 [   0]
  --> max chng: dpmx=   1.7227E+00 dtmpmx=   1.0238E-01

== TH FLOW =====================================================================
 Step    106 Time=  4.70000E+00 Dt=  5.00000E-02 [y] snes_conv_reason:    3
  newton =   1 [     112] linear =   135 [     14875] cuts =  0 [   0]
  --> max chng: dpmx=   1.7176E+00 dtmpmx=   1.0160E-01

== TH FLOW =====================================================================
 Step    107 Time=  4.75000E+00 Dt=  5.00000E-02 [y] snes_conv_reason:    3
  newton =   1 [     113] linear =   134 [     15009] cuts =  0 [   0]
  --> max chng: dpmx=   1.7125E+00 dtmpmx=   1.0109E-01

== TH FLOW =====================================================================
 Step    108 Time=  4.80000E+00 Dt=  5.00000E-02 [y] snes_conv_reason:    3
  newton =   1 [     114] linear =   130 [     15139] cuts =  0 [   0]
  --> max chng: dpmx=   1.7066E+00 dtmpmx=   1.0023E-01

== TH FLOW =====================================================================
 Step    109 Time=  4.85000E+00 Dt=  5.00000E-02 [y] snes_conv_reason:    3
  newton =   1 [     115] linear =   127 [     15266] cuts =  0 [   0]
  --> max chng: dpmx=   1.7025E+00 dtmpmx=   9.9740E-02

== TH FLOW =====================================================================
 Step    110 Time=  4.90000E+00 Dt=  5.00000E-02 [y] snes_conv_reason:    3
  newton =   1 [     116] linear =   132 [     15398] cuts =  0 [   0]
  --> max chng: dpmx=   1.6968E+00 dtmpmx=   9.9099E-02

== TH FLOW =====================================================================
 Step    111 Time=  4.95000E+00 Dt=  5.00000E-02 [y] snes_conv_reason:    3
  newton =   1 [     117] linear =   132 [     15530] cuts =  0 [   0]
  --> max chng: dpmx=   1.6919E+00 dtmpmx=   9.8327E-02

== TH FLOW =====================================================================
 Step    112 Time=  5.00000E+00 Dt=  5.00000E-02 [y] snes_conv_reason:    3
  newton =   1 [     118] linear =   135 [     15665] cuts =  0 [   0]
  --> max chng: dpmx=   1.6873E+00 dtmpmx=   9.7893E-02

== TH FLOW =====================================================================
 Step    113 Time=  5.05000E+00 Dt=  5.00000E-02 [y] snes_conv_reason:    3
  newton =   1 [     119] linear =   137 [     15802] cuts =  0 [   0]
  --> max chng: dpmx=   1.6814E+00 dtmpmx=   9.7134E-02

== TH FLOW =====================================================================
 Step    114 Time=  5.10000E+00 Dt=  5.00000E-02 [y] snes_conv_reason:    3
  newton =   1 [     120] linear =   123 [     15925] cuts =  0 [   0]
  --> max chng: dpmx=   1.6769E+00 dtmpmx=   9.6623E-02

== TH FLOW =====================================================================
 Step    115 Time=  5.15000E+00 Dt=  5.00000E-02 [y] snes_conv_reason:    3
  newton =   1 [     121] linear =   126 [     16051] cuts =  0 [   0]
  --> max chng: dpmx=   1.6714E+00 dtmpmx=   9.6064E-02

== TH FLOW =====================================================================
 Step    116 Time=  5.20000E+00 Dt=  5.00000E-02 [y] snes_conv_reason:    3
  newton =   1 [     122] linear =   134 [     16185] cuts =  0 [   0]
  --> max chng: dpmx=   1.6673E+00 dtmpmx=   9.5297E-02

== TH FLOW =====================================================================
 Step    117 Time=  5.25000E+00 Dt=  5.00000E-02 [y] snes_conv_reason:    3
  newton =   1 [     123] linear =   130 [     16315] cuts =  0 [   0]
  --> max chng: dpmx=   1.6621E+00 dtmpmx=   9.4927E-02

== TH FLOW =====================================================================
 Step    118 Time=  5.30000E+00 Dt=  5.00000E-02 [y] snes_conv_reason:    3
  newton =   1 [     124] linear =   134 [     16449] cuts =  0 [   0]
  --> max chng: dpmx=   1.6567E+00 dtmpmx=   9.4256E-02

== TH FLOW =====================================================================
 Step    119 Time=  5.35000E+00 Dt=  5.00000E-02 [y] snes_conv_reason:    3
  newton =   1 [     125] linear =   136 [     16585] cuts =  0 [   0]
  --> max chng: dpmx=   1.6523E+00 dtmpmx=   9.3731E-02

== TH FLOW =====================================================================
 Step    120 Time=  5.40000E+00 Dt=  5.00000E-02 [y] snes_conv_reason:    3
  newton =   1 [     126] linear =   132 [     16717] cuts =  0 [   0]
  --> max chng: dpmx=   1.6475E+00 dtmpmx=   9.3243E-02

== TH FLOW =====================================================================
 Step    121 Time=  5.45000E+00 Dt=  5.00000E-02 [y] snes_conv_reason:    3
  newton =   1 [     127] linear =   130 [     16847] cuts =  0 [   0]
  --> max chng: dpmx=   1.6423E+00 dtmpmx=   9.2482E-02

== TH FLOW =====================================================================
 Step    122 Time=  5.50000E+00 Dt=  5.00000E-02 [y] snes_conv_reason:    3
  newton =   1 [     128] linear =   131 [     16978] cuts =  0 [   0]
  --> max chng: dpmx=   1.6369E+00 dtmpmx=   9.2168E-02

== TH FLOW =====================================================================
 Step    123 Time=  5.55000E+00 Dt=  5.00000E-02 [y] snes_conv_reason:    3
  newton =   1 [     129] linear =   127 [     17105] cuts =  0 [   0]
  --> max chng: dpmx=   1.6327E+00 dtmpmx=   9.1573E-02

== TH FLOW =====================================================================
 Step    124 Time=  5.60000E+00 Dt=  5.00000E-02 [y] snes_conv_reason:    3
  newton =   1 [     130] linear =   136 [     17241] cuts =  0 [   0]
  --> max chng: dpmx=   1.6282E+00 dtmpmx=   9.1038E-02

== TH FLOW =====================================================================
 Step    125 Time=  5.65000E+00 Dt=  5.00000E-02 [y] snes_conv_reason:    3
  newton =   1 [     131] linear =   138 [     17379] cuts =  0 [   0]
  --> max chng: dpmx=   1.6228E+00 dtmpmx=   9.0612E-02

== TH FLOW =====================================================================
 Step    126 Time=  5.70000E+00 Dt=  5.00000E-02 [y] snes_conv_reason:    3
  newton =   1 [     132] linear =   137 [     17516] cuts =  0 [   0]
  --> max chng: dpmx=   1.6179E+00 dtmpmx=   8.9920E-02

== TH FLOW =====================================================================
 Step    127 Time=  5.75000E+00 Dt=  5.00000E-02 [y] snes_conv_reason:    3
  newton =   1 [     133] linear =   132 [     17648] cuts =  0 [   0]
  --> max chng: dpmx=   1.6138E+00 dtmpmx=   8.9593E-02

== TH FLOW =====================================================================
 Step    128 Time=  5.80000E+00 Dt=  5.00000E-02 [y] snes_conv_reason:    3
  newton =   1 [     134] linear =   132 [     17780] cuts =  0 [   0]
  --> max chng: dpmx=   1.6082E+00 dtmpmx=   8.9065E-02

== TH FLOW =====================================================================
 Step    129 Time=  5.85000E+00 Dt=  5.00000E-02 [y] snes_conv_reason:    3
  newton =   1 [     135] linear =   135 [     17915] cuts =  0 [   0]
  --> max chng: dpmx=   1.6038E+00 dtmpmx=   8.8522E-02

== TH FLOW =====================================================================
 Step    130 Time=  5.90000E+00 Dt=  5.00000E-02 [y] snes_conv_reason:    3
  newton =   1 [     136] linear =   136 [     18051] cuts =  0 [   0]
  --> max chng: dpmx=   1.5989E+00 dtmpmx=   8.8150E-02

== TH FLOW =====================================================================
 Step    131 Time=  5.95000E+00 Dt=  5.00000E-02 [y] snes_conv_reason:    3
  newton =   1 [     137] linear =   135 [     18186] cuts =  0 [   0]
  --> max chng: dpmx=   1.5942E+00 dtmpmx=   8.7528E-02

== TH FLOW =====================================================================
 Step    132 Time=  6.00000E+00 Dt=  5.00000E-02 [y] snes_conv_reason:    3
  newton =   1 [     138] linear =   130 [     18316] cuts =  0 [   0]
  --> max chng: dpmx=   1.5896E+00 dtmpmx=   8.7181E-02

== TH FLOW =====================================================================
 Step    133 Time=  6.05000E+00 Dt=  5.00000E-02 [y] snes_conv_reason:    3
  newton =   1 [     139] linear =   136 [     18452] cuts =  0 [   0]
  --> max chng: dpmx=   1.5846E+00 dtmpmx=   8.6712E-02

== TH FLOW =====================================================================
 Step    134 Time=  6.10000E+00 Dt=  5.00000E-02 [y] snes_conv_reason:    3
  newton =   1 [     140] linear =   126 [     18578] cuts =  0 [   0]
  --> max chng: dpmx=   1.5806E+00 dtmpmx=   8.6164E-02

== TH FLOW =====================================================================
 Step    135 Time=  6.15000E+00 Dt=  5.00000E-02 [y] snes_conv_reason:    3
  newton =   1 [     141] linear =   132 [     18710] cuts =  0 [   0]
  --> max chng: dpmx=   1.5754E+00 dtmpmx=   8.5839E-02

== TH FLOW =====================================================================
 Step    136 Time=  6.20000E+00 Dt=  5.00000E-02 [y] snes_conv_reason:    3
  newton =   1 [     142] linear =   134 [     18844] cuts =  0 [   0]
  --> max chng: dpmx=   1.5707E+00 dtmpmx=   8.5280E-02

== TH FLOW =====================================================================
 Step    137 Time=  6.25000E+00 Dt=  5.00000E-02 [y] snes_conv_reason:    3
  newton =   1 [     143] linear =   134 [     18978] cuts =  0 [   0]
  --> max chng: dpmx=   1.5657E+00 dtmpmx=   8.4916E-02

== TH FLOW =====================================================================
 Step    138 Time=  6.30000E+00 Dt=  5.00000E-02 [y] snes_conv_reason:    3
  newton =   1 [     144] linear =   138 [     19116] cuts =  0 [   0]
  --> max chng: dpmx=   1.5616E+00 dtmpmx=   8.4499E-02

== TH FLOW =====================================================================
 Step    139 Time=  6.35000E+00 Dt=  5.00000E-02 [y] snes_conv_reason:    3
  newton =   1 [     145] linear =   135 [     19251] cuts =  0 [   0]
  --> max chng: dpmx=   1.5566E+00 dtmpmx=   8.3948E-02

== TH FLOW =====================================================================
 Step    140 Time=  6.40000E+00 Dt=  5.00000E-02 [y] snes_conv_reason:    3
  newton =   1 [     146] linear =   135 [     19386] cuts =  0 [   0]
  --> max chng: dpmx=   1.5523E+00 dtmpmx=   8.3665E-02

== TH FLOW =====================================================================
 Step    141 Time=  6.45000E+00 Dt=  5.00000E-02 [y] snes_conv_reason:    3
  newton =   1 [     147] linear =   136 [     19522] cuts =  0 [   0]
  --> max chng: dpmx=   1.5470E+00 dtmpmx=   8.3162E-02

== TH FLOW =====================================================================
 Step    142 Time=  6.50000E+00 Dt=  5.00000E-02 [y] snes_conv_reason:    3
  newton =   1 [     148] linear =   135 [     19657] cuts =  0 [   0]
  --> max chng: dpmx=   1.5432E+00 dtmpmx=   8.2784E-02

== TH FLOW =====================================================================
 Step    143 Time=  6.55000E+00 Dt=  5.00000E-02 [y] snes_conv_reason:    3
  newton =   1 [     149] linear =   131 [     19788] cuts =  0 [   0]
  --> max chng: dpmx=   1.5382E+00 dtmpmx=   8.2413E-02

== TH FLOW =====================================================================
 Step    144 Time=  6.60000E+00 Dt=  5.00000E-02 [y] snes_conv_reason:    3
  newton =   1 [     150] linear =   132 [     19920] cuts =  0 [   0]
  --> max chng: dpmx=   1.5339E+00 dtmpmx=   8.1861E-02

== TH FLOW =====================================================================
 Step    145 Time=  6.65000E+00 Dt=  5.00000E-02 [y] snes_conv_reason:    3
  newton =   1 [     151] linear =   134 [     20054] cuts =  0 [   0]
  --> max chng: dpmx=   1.5287E+00 dtmpmx=   8.1615E-02

== TH FLOW =====================================================================
 Step    146 Time=  6.70000E+00 Dt=  5.00000E-02 [y] snes_conv_reason:    3
  newton =   1 [     152] linear =   135 [     20189] cuts =  0 [   0]
  --> max chng: dpmx=   1.5246E+00 dtmpmx=   8.1161E-02

== TH FLOW =====================================================================
 Step    147 Time=  6.75000E+00 Dt=  5.00000E-02 [y] snes_conv_reason:    3
  newton =   1 [     153] linear =   133 [     20322] cuts =  0 [   0]
  --> max chng: dpmx=   1.5201E+00 dtmpmx=   8.0772E-02

== TH FLOW =====================================================================
 Step    148 Time=  6.80000E+00 Dt=  5.00000E-02 [y] snes_conv_reason:    3
  newton =   1 [     154] linear =   134 [     20456] cuts =  0 [   0]
  --> max chng: dpmx=   1.5152E+00 dtmpmx=   8.0442E-02

== TH FLOW =====================================================================
 Step    149 Time=  6.85000E+00 Dt=  5.00000E-02 [y] snes_conv_reason:    3
  newton =   1 [     155] linear =   134 [     20590] cuts =  0 [   0]
  --> max chng: dpmx=   1.5111E+00 dtmpmx=   7.9912E-02

== TH FLOW =====================================================================
 Step    150 Time=  6.90000E+00 Dt=  5.00000E-02 [y] snes_conv_reason:    3
  newton =   1 [     156] linear =   135 [     20725] cuts =  0 [   0]
  --> max chng: dpmx=   1.5062E+00 dtmpmx=   7.9676E-02

== TH FLOW =====================================================================
 Step    151 Time=  6.95000E+00 Dt=  5.00000E-02 [y] snes_conv_reason:    3
  newton =   1 [     157] linear =   129 [     20854] cuts =  0 [   0]
  --> max chng: dpmx=   1.5018E+00 dtmpmx=   7.9267E-02

== TH FLOW =====================================================================
 Step    152 Time=  7.00000E+00 Dt=  5.00000E-02 [y] snes_conv_reason:    3
  newton =   1 [     158] linear =   134 [     20988] cuts =  0 [   0]
  --> max chng: dpmx=   1.4968E+00 dtmpmx=   7.8869E-02

== TH FLOW =====================================================================
 Step    153 Time=  7.05000E+00 Dt=  5.00000E-02 [y] snes_conv_reason:    3
  newton =   1 [     159] linear =   136 [     21124] cuts =  0 [   0]
  --> max chng: dpmx=   1.4926E+00 dtmpmx=   7.8575E-02

== TH FLOW =====================================================================
 Step    154 Time=  7.10000E+00 Dt=  5.00000E-02 [y] snes_conv_reason:    3
  newton =   1 [     160] linear =   136 [     21260] cuts =  0 [   0]
  --> max chng: dpmx=   1.4885E+00 dtmpmx=   7.8093E-02

== TH FLOW =====================================================================
 Step    155 Time=  7.15000E+00 Dt=  5.00000E-02 [y] snes_conv_reason:    3
  newton =   1 [     161] linear =   131 [     21391] cuts =  0 [   0]
  --> max chng: dpmx=   1.4830E+00 dtmpmx=   7.7841E-02

== TH FLOW =====================================================================
 Step    156 Time=  7.20000E+00 Dt=  5.00000E-02 [y] snes_conv_reason:    3
  newton =   1 [     162] linear =   131 [     21522] cuts =  0 [   0]
  --> max chng: dpmx=   1.4792E+00 dtmpmx=   7.7471E-02

== TH FLOW =====================================================================
 Step    157 Time=  7.25000E+00 Dt=  5.00000E-02 [y] snes_conv_reason:    3
  newton =   1 [     163] linear =   135 [     21657] cuts =  0 [   0]
  --> max chng: dpmx=   1.4752E+00 dtmpmx=   7.7066E-02

== TH FLOW =====================================================================
 Step    158 Time=  7.30000E+00 Dt=  5.00000E-02 [y] snes_conv_reason:    3
  newton =   1 [     164] linear =   134 [     21791] cuts =  0 [   0]
  --> max chng: dpmx=   1.4699E+00 dtmpmx=   7.6805E-02

== TH FLOW =====================================================================
 Step    159 Time=  7.35000E+00 Dt=  5.00000E-02 [y] snes_conv_reason:    3
  newton =   1 [     165] linear =   138 [     21929] cuts =  0 [   0]
  --> max chng: dpmx=   1.4654E+00 dtmpmx=   7.6365E-02

== TH FLOW =====================================================================
 Step    160 Time=  7.40000E+00 Dt=  5.00000E-02 [y] snes_conv_reason:    3
  newton =   1 [     166] linear =   133 [     22062] cuts =  0 [   0]
  --> max chng: dpmx=   1.4615E+00 dtmpmx=   7.6098E-02

== TH FLOW =====================================================================
 Step    161 Time=  7.45000E+00 Dt=  5.00000E-02 [y] snes_conv_reason:    3
  newton =   1 [     167] linear =   133 [     22195] cuts =  0 [   0]
  --> max chng: dpmx=   1.4564E+00 dtmpmx=   7.5764E-02

== TH FLOW =====================================================================
 Step    162 Time=  7.50000E+00 Dt=  5.00000E-02 [y] snes_conv_reason:    3
  newton =   1 [     168] linear =   133 [     22328] cuts =  0 [   0]
  --> max chng: dpmx=   1.4527E+00 dtmpmx=   7.5354E-02

== TH FLOW =====================================================================
 Step    163 Time=  7.55000E+00 Dt=  5.00000E-02 [y] snes_conv_reason:    3
  newton =   1 [     169] linear =   136 [     22464] cuts =  0 [   0]
  --> max chng: dpmx=   1.4473E+00 dtmpmx=   7.5122E-02

== TH FLOW =====================================================================
 Step    164 Time=  7.60000E+00 Dt=  5.00000E-02 [y] snes_conv_reason:    3
  newton =   1 [     170] linear =   130 [     22594] cuts =  0 [   0]
  --> max chng: dpmx=   1.4439E+00 dtmpmx=   7.4721E-02

== TH FLOW =====================================================================
 Step    165 Time=  7.65000E+00 Dt=  5.00000E-02 [y] snes_conv_reason:    3
  newton =   1 [     171] linear =   133 [     22727] cuts =  0 [   0]
  --> max chng: dpmx=   1.4388E+00 dtmpmx=   7.4442E-02

== TH FLOW =====================================================================
 Step    166 Time=  7.70000E+00 Dt=  5.00000E-02 [y] snes_conv_reason:    3
  newton =   1 [     172] linear =   133 [     22860] cuts =  0 [   0]
  --> max chng: dpmx=   1.4346E+00 dtmpmx=   7.4141E-02

== TH FLOW =====================================================================
 Step    167 Time=  7.75000E+00 Dt=  5.00000E-02 [y] snes_conv_reason:    3
  newton =   1 [     173] linear =   133 [     22993] cuts =  0 [   0]
  --> max chng: dpmx=   1.4300E+00 dtmpmx=   7.3726E-02

== TH FLOW =====================================================================
 Step    168 Time=  7.80000E+00 Dt=  5.00000E-02 [y] snes_conv_reason:    3
  newton =   1 [     174] linear =   125 [     23118] cuts =  0 [   0]
  --> max chng: dpmx=   1.4252E+00 dtmpmx=   7.3521E-02

== TH FLOW =====================================================================
 Step    169 Time=  7.85000E+00 Dt=  5.00000E-02 [y] snes_conv_reason:    3
  newton =   1 [     175] linear =   138 [     23256] cuts =  0 [   0]
  --> max chng: dpmx=   1.4213E+00 dtmpmx=   7.3154E-02

== TH FLOW =====================================================================
 Step    170 Time=  7.90000E+00 Dt=  5.00000E-02 [y] snes_conv_reason:    3
  newton =   1 [     176] linear =   136 [     23392] cuts =  0 [   0]
  --> max chng: dpmx=   1.4166E+00 dtmpmx=   7.2865E-02

== TH FLOW =====================================================================
 Step    171 Time=  7.95000E+00 Dt=  5.00000E-02 [y] snes_conv_reason:    3
  newton =   1 [     177] linear =   136 [     23528] cuts =  0 [   0]
  --> max chng: dpmx=   1.4129E+00 dtmpmx=   7.2593E-02

== TH FLOW =====================================================================
 Step    172 Time=  8.00000E+00 Dt=  5.00000E-02 [y] snes_conv_reason:    3
  newton =   1 [     178] linear =   124 [     23652] cuts =  0 [   0]
  --> max chng: dpmx=   1.4072E+00 dtmpmx=   7.2176E-02

== TH FLOW =====================================================================
 Step    173 Time=  8.05000E+00 Dt=  5.00000E-02 [y] snes_conv_reason:    3
  newton =   1 [     179] linear =   131 [     23783] cuts =  0 [   0]
  --> max chng: dpmx=   1.4041E+00 dtmpmx=   7.1994E-02

== TH FLOW =====================================================================
 Step    174 Time=  8.10000E+00 Dt=  5.00000E-02 [y] snes_conv_reason:    3
  newton =   1 [     180] linear =   126 [     23909] cuts =  0 [   0]
  --> max chng: dpmx=   1.3992E+00 dtmpmx=   7.1659E-02

== TH FLOW =====================================================================
 Step    175 Time=  8.15000E+00 Dt=  5.00000E-02 [y] snes_conv_reason:    3
  newton =   1 [     181] linear =   134 [     24043] cuts =  0 [   0]
  --> max chng: dpmx=   1.3946E+00 dtmpmx=   7.1361E-02

== TH FLOW =====================================================================
 Step    176 Time=  8.20000E+00 Dt=  5.00000E-02 [y] snes_conv_reason:    3
  newton =   1 [     182] linear =   132 [     24175] cuts =  0 [   0]
  --> max chng: dpmx=   1.3906E+00 dtmpmx=   7.1116E-02

== TH FLOW =====================================================================
 Step    177 Time=  8.25000E+00 Dt=  5.00000E-02 [y] snes_conv_reason:    3
  newton =   1 [     183] linear =   127 [     24302] cuts =  0 [   0]
  --> max chng: dpmx=   1.3862E+00 dtmpmx=   7.0722E-02

== TH FLOW =====================================================================
 Step    178 Time=  8.30000E+00 Dt=  5.00000E-02 [y] snes_conv_reason:    3
  newton =   1 [     184] linear =   130 [     24432] cuts =  0 [   0]
  --> max chng: dpmx=   1.3819E+00 dtmpmx=   7.0537E-02

== TH FLOW =====================================================================
 Step    179 Time=  8.35000E+00 Dt=  5.00000E-02 [y] snes_conv_reason:    3
  newton =   1 [     185] linear =   133 [     24565] cuts =  0 [   0]
  --> max chng: dpmx=   1.3768E+00 dtmpmx=   7.0231E-02

== TH FLOW =====================================================================
 Step    180 Time=  8.40000E+00 Dt=  5.00000E-02 [y] snes_conv_reason:    3
  newton =   1 [     186] linear =   134 [     24699] cuts =  0 [   0]
  --> max chng: dpmx=   1.3731E+00 dtmpmx=   6.9925E-02

== TH FLOW =====================================================================
 Step    181 Time=  8.45000E+00 Dt=  5.00000E-02 [y] snes_conv_reason:    3
  newton =   1 [     187] linear =   128 [     24827] cuts =  0 [   0]
  --> max chng: dpmx=   1.3686E+00 dtmpmx=   6.9704E-02

== TH FLOW =====================================================================
 Step    182 Time=  8.50000E+00 Dt=  5.00000E-02 [y] snes_conv_reason:    3
  newton =   1 [     188] linear =   128 [     24955] cuts =  0 [   0]
  --> max chng: dpmx=   1.3639E+00 dtmpmx=   6.9341E-02

== TH FLOW =====================================================================
 Step    183 Time=  8.55000E+00 Dt=  5.00000E-02 [y] snes_conv_reason:    3
  newton =   1 [     189] linear =   132 [     25087] cuts =  0 [   0]
  --> max chng: dpmx=   1.3600E+00 dtmpmx=   6.9143E-02

== TH FLOW =====================================================================
 Step    184 Time=  8.60000E+00 Dt=  5.00000E-02 [y] snes_conv_reason:    3
  newton =   1 [     190] linear =   134 [     25221] cuts =  0 [   0]
  --> max chng: dpmx=   1.3555E+00 dtmpmx=   6.8864E-02

== TH FLOW =====================================================================
 Step    185 Time=  8.65000E+00 Dt=  5.00000E-02 [y] snes_conv_reason:    3
  newton =   1 [     191] linear =   131 [     25352] cuts =  0 [   0]
  --> max chng: dpmx=   1.3511E+00 dtmpmx=   6.8552E-02

== TH FLOW =====================================================================
 Step    186 Time=  8.70000E+00 Dt=  5.00000E-02 [y] snes_conv_reason:    3
  newton =   1 [     192] linear =   131 [     25483] cuts =  0 [   0]
  --> max chng: dpmx=   1.3473E+00 dtmpmx=   6.8352E-02

== TH FLOW =====================================================================
 Step    187 Time=  8.75000E+00 Dt=  5.00000E-02 [y] snes_conv_reason:    3
  newton =   1 [     193] linear =   130 [     25613] cuts =  0 [   0]
  --> max chng: dpmx=   1.3421E+00 dtmpmx=   6.8018E-02

== TH FLOW =====================================================================
 Step    188 Time=  8.80000E+00 Dt=  5.00000E-02 [y] snes_conv_reason:    3
  newton =   1 [     194] linear =   134 [     25747] cuts =  0 [   0]
  --> max chng: dpmx=   1.3383E+00 dtmpmx=   6.7809E-02

== TH FLOW =====================================================================
 Step    189 Time=  8.85000E+00 Dt=  5.00000E-02 [y] snes_conv_reason:    3
  newton =   1 [     195] linear =   130 [     25877] cuts =  0 [   0]
  --> max chng: dpmx=   1.3340E+00 dtmpmx=   6.7554E-02

== TH FLOW =====================================================================
 Step    190 Time=  8.90000E+00 Dt=  5.00000E-02 [y] snes_conv_reason:    3
  newton =   1 [     196] linear =   134 [     26011] cuts =  0 [   0]
  --> max chng: dpmx=   1.3295E+00 dtmpmx=   6.7237E-02

== TH FLOW =====================================================================
 Step    191 Time=  8.95000E+00 Dt=  5.00000E-02 [y] snes_conv_reason:    3
  newton =   1 [     197] linear =   135 [     26146] cuts =  0 [   0]
  --> max chng: dpmx=   1.3249E+00 dtmpmx=   6.7058E-02

== TH FLOW =====================================================================
 Step    192 Time=  9.00000E+00 Dt=  5.00000E-02 [y] snes_conv_reason:    3
  newton =   1 [     198] linear =   134 [     26280] cuts =  0 [   0]
  --> max chng: dpmx=   1.3209E+00 dtmpmx=   6.6749E-02

== TH FLOW =====================================================================
 Step    193 Time=  9.05000E+00 Dt=  5.00000E-02 [y] snes_conv_reason:    3
  newton =   1 [     199] linear =   134 [     26414] cuts =  0 [   0]
  --> max chng: dpmx=   1.3166E+00 dtmpmx=   6.6531E-02

== TH FLOW =====================================================================
 Step    194 Time=  9.10000E+00 Dt=  5.00000E-02 [y] snes_conv_reason:    3
  newton =   1 [     200] linear =   124 [     26538] cuts =  0 [   0]
  --> max chng: dpmx=   1.3119E+00 dtmpmx=   6.6298E-02

== TH FLOW =====================================================================
 Step    195 Time=  9.15000E+00 Dt=  5.00000E-02 [y] snes_conv_reason:    3
  newton =   1 [     201] linear =   112 [     26650] cuts =  0 [   0]
  --> max chng: dpmx=   1.3086E+00 dtmpmx=   6.5977E-02

== TH FLOW =====================================================================
 Step    196 Time=  9.20000E+00 Dt=  5.00000E-02 [y] snes_conv_reason:    3
  newton =   1 [     202] linear =   134 [     26784] cuts =  0 [   0]
  --> max chng: dpmx=   1.3035E+00 dtmpmx=   6.5816E-02

== TH FLOW =====================================================================
 Step    197 Time=  9.25000E+00 Dt=  5.00000E-02 [y] snes_conv_reason:    3
  newton =   1 [     203] linear =   136 [     26920] cuts =  0 [   0]
  --> max chng: dpmx=   1.2993E+00 dtmpmx=   6.5531E-02

== TH FLOW =====================================================================
 Step    198 Time=  9.30000E+00 Dt=  5.00000E-02 [y] snes_conv_reason:    3
  newton =   1 [     204] linear =   131 [     27051] cuts =  0 [   0]
  --> max chng: dpmx=   1.2951E+00 dtmpmx=   6.5305E-02

== TH FLOW =====================================================================
 Step    199 Time=  9.35000E+00 Dt=  5.00000E-02 [y] snes_conv_reason:    3
  newton =   1 [     205] linear =   136 [     27187] cuts =  0 [   0]
  --> max chng: dpmx=   1.2907E+00 dtmpmx=   6.5092E-02

== TH FLOW =====================================================================
 Step    200 Time=  9.40000E+00 Dt=  5.00000E-02 [y] snes_conv_reason:    3
  newton =   1 [     206] linear =   138 [     27325] cuts =  0 [   0]
  --> max chng: dpmx=   1.2866E+00 dtmpmx=   6.4767E-02

== TH FLOW =====================================================================
 Step    201 Time=  9.45000E+00 Dt=  5.00000E-02 [y] snes_conv_reason:    3
  newton =   1 [     207] linear =   134 [     27459] cuts =  0 [   0]
  --> max chng: dpmx=   1.2821E+00 dtmpmx=   6.4623E-02

== TH FLOW =====================================================================
 Step    202 Time=  9.50000E+00 Dt=  5.00000E-02 [y] snes_conv_reason:    3
  newton =   1 [     208] linear =   132 [     27591] cuts =  0 [   0]
  --> max chng: dpmx=   1.2780E+00 dtmpmx=   6.4361E-02

== TH FLOW =====================================================================
 Step    203 Time=  9.55000E+00 Dt=  5.00000E-02 [y] snes_conv_reason:    3
  newton =   1 [     209] linear =   131 [     27722] cuts =  0 [   0]
  --> max chng: dpmx=   1.2736E+00 dtmpmx=   6.4127E-02

== TH FLOW =====================================================================
 Step    204 Time=  9.60000E+00 Dt=  5.00000E-02 [y] snes_conv_reason:    3
  newton =   1 [     210] linear =   135 [     27857] cuts =  0 [   0]
  --> max chng: dpmx=   1.2693E+00 dtmpmx=   6.3933E-02

== TH FLOW =====================================================================
 Step    205 Time=  9.65000E+00 Dt=  5.00000E-02 [y] snes_conv_reason:    3
  newton =   1 [     211] linear =   141 [     27998] cuts =  0 [   0]
  --> max chng: dpmx=   1.2653E+00 dtmpmx=   6.3623E-02

== TH FLOW =====================================================================
 Step    206 Time=  9.70000E+00 Dt=  5.00000E-02 [y] snes_conv_reason:    3
  newton =   1 [     212] linear =   137 [     28135] cuts =  0 [   0]
  --> max chng: dpmx=   1.2608E+00 dtmpmx=   6.3477E-02

== TH FLOW =====================================================================
 Step    207 Time=  9.75000E+00 Dt=  5.00000E-02 [y] snes_conv_reason:    3
  newton =   1 [     213] linear =   132 [     28267] cuts =  0 [   0]
  --> max chng: dpmx=   1.2566E+00 dtmpmx=   6.3235E-02

== TH FLOW =====================================================================
 Step    208 Time=  9.80000E+00 Dt=  5.00000E-02 [y] snes_conv_reason:    3
  newton =   1 [     214] linear =   133 [     28400] cuts =  0 [   0]
  --> max chng: dpmx=   1.2522E+00 dtmpmx=   6.2995E-02

== TH FLOW =====================================================================
 Step    209 Time=  9.85000E+00 Dt=  5.00000E-02 [y] snes_conv_reason:    3
  newton =   1 [     215] linear =   134 [     28534] cuts =  0 [   0]
  --> max chng: dpmx=   1.2485E+00 dtmpmx=   6.2818E-02

== TH FLOW =====================================================================
 Step    210 Time=  9.90000E+00 Dt=  5.00000E-02 [y] snes_conv_reason:    3
  newton =   1 [     216] linear =   133 [     28667] cuts =  0 [   0]
  --> max chng: dpmx=   1.2435E+00 dtmpmx=   6.2530E-02

== TH FLOW =====================================================================
 Step    211 Time=  9.95000E+00 Dt=  5.00000E-02 [y] snes_conv_reason:    3
  newton =   1 [     217] linear =   133 [     28800] cuts =  0 [   0]
  --> max chng: dpmx=   1.2396E+00 dtmpmx=   6.2374E-02

== TH FLOW =====================================================================
 Step    212 Time=  1.00000E+01 Dt=  5.00000E-02 [y] snes_conv_reason:    3
  newton =   1 [     218] linear =   135 [     28935] cuts =  0 [   0]
  --> max chng: dpmx=   1.2353E+00 dtmpmx=   6.2150E-02

== TH FLOW =====================================================================
 Step    213 Time=  1.00500E+01 Dt=  5.00000E-02 [y] snes_conv_reason:    3
  newton =   1 [     219] linear =   133 [     29068] cuts =  0 [   0]
  --> max chng: dpmx=   1.2310E+00 dtmpmx=   6.1905E-02

== TH FLOW =====================================================================
 Step    214 Time=  1.01000E+01 Dt=  5.00000E-02 [y] snes_conv_reason:    3
  newton =   1 [     220] linear =   133 [     29201] cuts =  0 [   0]
  --> max chng: dpmx=   1.2266E+00 dtmpmx=   6.1744E-02

== TH FLOW =====================================================================
 Step    215 Time=  1.01500E+01 Dt=  5.00000E-02 [y] snes_conv_reason:    3
  newton =   1 [     221] linear =   135 [     29336] cuts =  0 [   0]
  --> max chng: dpmx=   1.2227E+00 dtmpmx=   6.1476E-02

== TH FLOW =====================================================================
 Step    216 Time=  1.02000E+01 Dt=  5.00000E-02 [y] snes_conv_reason:    3
  newton =   1 [     222] linear =   133 [     29469] cuts =  0 [   0]
  --> max chng: dpmx=   1.2182E+00 dtmpmx=   6.1312E-02

== TH FLOW =====================================================================
 Step    217 Time=  1.02500E+01 Dt=  5.00000E-02 [y] snes_conv_reason:    3
  newton =   1 [     223] linear =   135 [     29604] cuts =  0 [   0]
  --> max chng: dpmx=   1.2140E+00 dtmpmx=   6.1106E-02

== TH FLOW =====================================================================
 Step    218 Time=  1.03000E+01 Dt=  5.00000E-02 [y] snes_conv_reason:    3
  newton =   1 [     224] linear =   123 [     29727] cuts =  0 [   0]
  --> max chng: dpmx=   1.2098E+00 dtmpmx=   6.0856E-02

== TH FLOW =====================================================================
 Step    219 Time=  1.03500E+01 Dt=  5.00000E-02 [y] snes_conv_reason:    3
  newton =   1 [     225] linear =   128 [     29855] cuts =  0 [   0]
  --> max chng: dpmx=   1.2052E+00 dtmpmx=   6.0709E-02

== TH FLOW =====================================================================
 Step    220 Time=  1.04000E+01 Dt=  5.00000E-02 [y] snes_conv_reason:    3
  newton =   1 [     226] linear =   131 [     29986] cuts =  0 [   0]
  --> max chng: dpmx=   1.2018E+00 dtmpmx=   6.0460E-02

== TH FLOW =====================================================================
 Step    221 Time=  1.04500E+01 Dt=  5.00000E-02 [y] snes_conv_reason:    3
  newton =   1 [     227] linear =   132 [     30118] cuts =  0 [   0]
  --> max chng: dpmx=   1.1973E+00 dtmpmx=   6.0288E-02

== TH FLOW =====================================================================
 Step    222 Time=  1.05000E+01 Dt=  5.00000E-02 [y] snes_conv_reason:    3
  newton =   1 [     228] linear =   131 [     30249] cuts =  0 [   0]
  --> max chng: dpmx=   1.1927E+00 dtmpmx=   6.0098E-02

== TH FLOW =====================================================================
 Step    223 Time=  1.05500E+01 Dt=  5.00000E-02 [y] snes_conv_reason:    3
  newton =   1 [     229] linear =   126 [     30375] cuts =  0 [   0]
  --> max chng: dpmx=   1.1888E+00 dtmpmx=   5.9844E-02

== TH FLOW =====================================================================
 Step    224 Time=  1.06000E+01 Dt=  5.00000E-02 [y] snes_conv_reason:    3
  newton =   1 [     230] linear =   135 [     30510] cuts =  0 [   0]
  --> max chng: dpmx=   1.1841E+00 dtmpmx=   5.9711E-02

== TH FLOW =====================================================================
 Step    225 Time=  1.06500E+01 Dt=  5.00000E-02 [y] snes_conv_reason:    3
  newton =   1 [     231] linear =   135 [     30645] cuts =  0 [   0]
  --> max chng: dpmx=   1.1803E+00 dtmpmx=   5.9480E-02

== TH FLOW =====================================================================
 Step    226 Time=  1.07000E+01 Dt=  5.00000E-02 [y] snes_conv_reason:    3
  newton =   1 [     232] linear =   135 [     30780] cuts =  0 [   0]
  --> max chng: dpmx=   1.1759E+00 dtmpmx=   5.9301E-02

== TH FLOW =====================================================================
 Step    227 Time=  1.07500E+01 Dt=  5.00000E-02 [y] snes_conv_reason:    3
  newton =   1 [     233] linear =   133 [     30913] cuts =  0 [   0]
  --> max chng: dpmx=   1.1716E+00 dtmpmx=   5.9126E-02

== TH FLOW =====================================================================
 Step    228 Time=  1.08000E+01 Dt=  5.00000E-02 [y] snes_conv_reason:    3
  newton =   1 [     234] linear =   130 [     31043] cuts =  0 [   0]
  --> max chng: dpmx=   1.1676E+00 dtmpmx=   5.8868E-02

== TH FLOW =====================================================================
 Step    229 Time=  1.08500E+01 Dt=  5.00000E-02 [y] snes_conv_reason:    3
  newton =   1 [     235] linear =   130 [     31173] cuts =  0 [   0]
  --> max chng: dpmx=   1.1638E+00 dtmpmx=   5.8748E-02

== TH FLOW =====================================================================
 Step    230 Time=  1.09000E+01 Dt=  5.00000E-02 [y] snes_conv_reason:    3
  newton =   1 [     236] linear =   137 [     31310] cuts =  0 [   0]
  --> max chng: dpmx=   1.1588E+00 dtmpmx=   5.8532E-02

== TH FLOW =====================================================================
 Step    231 Time=  1.09500E+01 Dt=  5.00000E-02 [y] snes_conv_reason:    3
  newton =   1 [     237] linear =   134 [     31444] cuts =  0 [   0]
  --> max chng: dpmx=   1.1551E+00 dtmpmx=   5.8348E-02

== TH FLOW =====================================================================
 Step    232 Time=  1.10000E+01 Dt=  5.00000E-02 [y] snes_conv_reason:    3
  newton =   1 [     238] linear =   133 [     31577] cuts =  0 [   0]
  --> max chng: dpmx=   1.1508E+00 dtmpmx=   5.8186E-02

== TH FLOW =====================================================================
 Step    233 Time=  1.10500E+01 Dt=  5.00000E-02 [y] snes_conv_reason:    3
  newton =   1 [     239] linear =   133 [     31710] cuts =  0 [   0]
  --> max chng: dpmx=   1.1465E+00 dtmpmx=   5.7932E-02

== TH FLOW =====================================================================
 Step    234 Time=  1.11000E+01 Dt=  5.00000E-02 [y] snes_conv_reason:    3
  newton =   1 [     240] linear =   129 [     31839] cuts =  0 [   0]
  --> max chng: dpmx=   1.1420E+00 dtmpmx=   5.7817E-02

== TH FLOW =====================================================================
 Step    235 Time=  1.11500E+01 Dt=  5.00000E-02 [y] snes_conv_reason:    3
  newton =   1 [     241] linear =   134 [     31973] cuts =  0 [   0]
  --> max chng: dpmx=   1.1380E+00 dtmpmx=   5.7617E-02

== TH FLOW =====================================================================
 Step    236 Time=  1.12000E+01 Dt=  5.00000E-02 [y] snes_conv_reason:    3
  newton =   1 [     242] linear =   129 [     32102] cuts =  0 [   0]
  --> max chng: dpmx=   1.1342E+00 dtmpmx=   5.7427E-02

== TH FLOW =====================================================================
 Step    237 Time=  1.12500E+01 Dt=  5.00000E-02 [y] snes_conv_reason:    3
  newton =   1 [     243] linear =   124 [     32226] cuts =  0 [   0]
  --> max chng: dpmx=   1.1294E+00 dtmpmx=   5.7278E-02

== TH FLOW =====================================================================
 Step    238 Time=  1.13000E+01 Dt=  5.00000E-02 [y] snes_conv_reason:    3
  newton =   1 [     244] linear =   133 [     32359] cuts =  0 [   0]
  --> max chng: dpmx=   1.1255E+00 dtmpmx=   5.7040E-02

== TH FLOW =====================================================================
 Step    239 Time=  1.13500E+01 Dt=  5.00000E-02 [y] snes_conv_reason:    3
  newton =   1 [     245] linear =   134 [     32493] cuts =  0 [   0]
  --> max chng: dpmx=   1.1215E+00 dtmpmx=   5.6918E-02

== TH FLOW =====================================================================
 Step    240 Time=  1.14000E+01 Dt=  5.00000E-02 [y] snes_conv_reason:    3
  newton =   1 [     246] linear =   133 [     32626] cuts =  0 [   0]
  --> max chng: dpmx=   1.1171E+00 dtmpmx=   5.6731E-02

== TH FLOW =====================================================================
 Step    241 Time=  1.14500E+01 Dt=  5.00000E-02 [y] snes_conv_reason:    3
  newton =   1 [     247] linear =   133 [     32759] cuts =  0 [   0]
  --> max chng: dpmx=   1.1132E+00 dtmpmx=   5.6537E-02

== TH FLOW =====================================================================
 Step    242 Time=  1.15000E+01 Dt=  5.00000E-02 [y] snes_conv_reason:    3
  newton =   1 [     248] linear =   129 [     32888] cuts =  0 [   0]
  --> max chng: dpmx=   1.1083E+00 dtmpmx=   5.6400E-02

== TH FLOW =====================================================================
 Step    243 Time=  1.15500E+01 Dt=  5.00000E-02 [y] snes_conv_reason:    3
  newton =   1 [     249] linear =   128 [     33016] cuts =  0 [   0]
  --> max chng: dpmx=   1.1049E+00 dtmpmx=   5.6177E-02

== TH FLOW =====================================================================
 Step    244 Time=  1.16000E+01 Dt=  5.00000E-02 [y] snes_conv_reason:    3
  newton =   1 [     250] linear =   135 [     33151] cuts =  0 [   0]
  --> max chng: dpmx=   1.1001E+00 dtmpmx=   5.6048E-02

== TH FLOW =====================================================================
 Step    245 Time=  1.16500E+01 Dt=  5.00000E-02 [y] snes_conv_reason:    3
  newton =   1 [     251] linear =   128 [     33279] cuts =  0 [   0]
  --> max chng: dpmx=   1.0961E+00 dtmpmx=   5.5874E-02

== TH FLOW =====================================================================
 Step    246 Time=  1.17000E+01 Dt=  5.00000E-02 [y] snes_conv_reason:    3
  newton =   1 [     252] linear =   135 [     33414] cuts =  0 [   0]
  --> max chng: dpmx=   1.0920E+00 dtmpmx=   5.5675E-02

== TH FLOW =====================================================================
 Step    247 Time=  1.17500E+01 Dt=  5.00000E-02 [y] snes_conv_reason:    3
  newton =   1 [     253] linear =   134 [     33548] cuts =  0 [   0]
  --> max chng: dpmx=   1.0880E+00 dtmpmx=   5.5550E-02

== TH FLOW =====================================================================
 Step    248 Time=  1.18000E+01 Dt=  5.00000E-02 [y] snes_conv_reason:    3
  newton =   1 [     254] linear =   131 [     33679] cuts =  0 [   0]
  --> max chng: dpmx=   1.0835E+00 dtmpmx=   5.5341E-02

== TH FLOW =====================================================================
 Step    249 Time=  1.18500E+01 Dt=  5.00000E-02 [y] snes_conv_reason:    3
  newton =   1 [     255] linear =   131 [     33810] cuts =  0 [   0]
  --> max chng: dpmx=   1.0792E+00 dtmpmx=   5.5205E-02

== TH FLOW =====================================================================
 Step    250 Time=  1.19000E+01 Dt=  5.00000E-02 [y] snes_conv_reason:    3
  newton =   1 [     256] linear =   131 [     33941] cuts =  0 [   0]
  --> max chng: dpmx=   1.0754E+00 dtmpmx=   5.5044E-02

== TH FLOW =====================================================================
 Step    251 Time=  1.19500E+01 Dt=  5.00000E-02 [y] snes_conv_reason:    3
  newton =   1 [     257] linear =   134 [     34075] cuts =  0 [   0]
  --> max chng: dpmx=   1.0708E+00 dtmpmx=   5.4842E-02

== TH FLOW =====================================================================
 Step    252 Time=  1.20000E+01 Dt=  5.00000E-02 [y] snes_conv_reason:    3
  newton =   1 [     258] linear =   131 [     34206] cuts =  0 [   0]
  --> max chng: dpmx=   1.0672E+00 dtmpmx=   5.4727E-02

== TH FLOW =====================================================================
 Step    253 Time=  1.20500E+01 Dt=  5.00000E-02 [y] snes_conv_reason:    3
  newton =   1 [     259] linear =   136 [     34342] cuts =  0 [   0]
  --> max chng: dpmx=   1.0627E+00 dtmpmx=   5.4531E-02

== TH FLOW =====================================================================
 Step    254 Time=  1.21000E+01 Dt=  5.00000E-02 [y] snes_conv_reason:    3
  newton =   1 [     260] linear =   131 [     34473] cuts =  0 [   0]
  --> max chng: dpmx=   1.0587E+00 dtmpmx=   5.4390E-02

== TH FLOW =====================================================================
 Step    255 Time=  1.21500E+01 Dt=  5.00000E-02 [y] snes_conv_reason:    3
  newton =   1 [     261] linear =   131 [     34604] cuts =  0 [   0]
  --> max chng: dpmx=   1.0545E+00 dtmpmx=   5.4240E-02

== TH FLOW =====================================================================
 Step    256 Time=  1.22000E+01 Dt=  5.00000E-02 [y] snes_conv_reason:    3
  newton =   1 [     262] linear =   130 [     34734] cuts =  0 [   0]
  --> max chng: dpmx=   1.0501E+00 dtmpmx=   5.4034E-02

== TH FLOW =====================================================================
 Step    257 Time=  1.22500E+01 Dt=  5.00000E-02 [y] snes_conv_reason:    3
  newton =   1 [     263] linear =   131 [     34865] cuts =  0 [   0]
  --> max chng: dpmx=   1.0459E+00 dtmpmx=   5.3929E-02

[...]
 Step    493 Time=  2.40500E+01 Dt=  5.00000E-02 [y] snes_conv_reason:    3
  newton =   1 [     499] linear =   108 [     65659] cuts =  0 [   0]
  --> max chng: dpmx=   1.7404E+00 dtmpmx=   3.2359E-02

== TH FLOW =====================================================================
 Step    494 Time=  2.41000E+01 Dt=  5.00000E-02 [y] snes_conv_reason:    3
  newton =   1 [     500] linear =   124 [     65783] cuts =  0 [   0]
  --> max chng: dpmx=   1.7440E+00 dtmpmx=   3.2304E-02

== TH FLOW =====================================================================
 Step    495 Time=  2.41500E+01 Dt=  5.00000E-02 [y] snes_conv_reason:    3
  newton =   1 [     501] linear =   129 [     65912] cuts =  0 [   0]
  --> max chng: dpmx=   1.7471E+00 dtmpmx=   3.2258E-02

== TH FLOW =====================================================================
 Step    496 Time=  2.42000E+01 Dt=  5.00000E-02 [y] snes_conv_reason:    3
  newton =   1 [     502] linear =   128 [     66040] cuts =  0 [   0]
  --> max chng: dpmx=   1.7503E+00 dtmpmx=   3.2186E-02

== TH FLOW =====================================================================
 Step    497 Time=  2.42500E+01 Dt=  5.00000E-02 [y] snes_conv_reason:    3
  newton =   1 [     503] linear =   130 [     66170] cuts =  0 [   0]
  --> max chng: dpmx=   1.7533E+00 dtmpmx=   3.2150E-02

== TH FLOW =====================================================================
 Step    498 Time=  2.43000E+01 Dt=  5.00000E-02 [y] snes_conv_reason:    3
  newton =   1 [     504] linear =   129 [     66299] cuts =  0 [   0]
  --> max chng: dpmx=   1.7561E+00 dtmpmx=   3.2092E-02

== TH FLOW =====================================================================
 Step    499 Time=  2.43500E+01 Dt=  5.00000E-02 [y] snes_conv_reason:    3
  newton =   1 [     505] linear =   131 [     66430] cuts =  0 [   0]
  --> max chng: dpmx=   1.7594E+00 dtmpmx=   3.2037E-02

== TH FLOW =====================================================================
 Step    500 Time=  2.44000E+01 Dt=  5.00000E-02 [y] snes_conv_reason:    3
  newton =   1 [     506] linear =   128 [     66558] cuts =  0 [   0]
  --> max chng: dpmx=   1.7624E+00 dtmpmx=   3.1992E-02

== TH FLOW =====================================================================
 Step    501 Time=  2.44500E+01 Dt=  5.00000E-02 [y] snes_conv_reason:    3
  newton =   1 [     507] linear =   130 [     66688] cuts =  0 [   0]
  --> max chng: dpmx=   1.7649E+00 dtmpmx=   3.1923E-02

== TH FLOW =====================================================================
 Step    502 Time=  2.45000E+01 Dt=  5.00000E-02 [y] snes_conv_reason:    3
  newton =   1 [     508] linear =   130 [     66818] cuts =  0 [   0]
  --> max chng: dpmx=   1.7681E+00 dtmpmx=   3.1886E-02

== TH FLOW =====================================================================
 Step    503 Time=  2.45500E+01 Dt=  5.00000E-02 [y] snes_conv_reason:    3
  newton =   1 [     509] linear =   130 [     66948] cuts =  0 [   0]
  --> max chng: dpmx=   1.7708E+00 dtmpmx=   3.1830E-02

== TH FLOW =====================================================================
 Step    504 Time=  2.46000E+01 Dt=  5.00000E-02 [y] snes_conv_reason:    3
  newton =   1 [     510] linear =   125 [     67073] cuts =  0 [   0]
  --> max chng: dpmx=   1.7732E+00 dtmpmx=   3.1775E-02

== TH FLOW =====================================================================
 Step    505 Time=  2.46500E+01 Dt=  5.00000E-02 [y] snes_conv_reason:    3
  newton =   1 [     511] linear =   131 [     67204] cuts =  0 [   0]
  --> max chng: dpmx=   1.7761E+00 dtmpmx=   3.1731E-02

== TH FLOW =====================================================================
 Step    506 Time=  2.47000E+01 Dt=  5.00000E-02 [y] snes_conv_reason:    3
  newton =   1 [     512] linear =   123 [     67327] cuts =  0 [   0]
  --> max chng: dpmx=   1.7786E+00 dtmpmx=   3.1663E-02

== TH FLOW =====================================================================
 Step    507 Time=  2.47500E+01 Dt=  5.00000E-02 [y] snes_conv_reason:    3
  newton =   1 [     513] linear =   130 [     67457] cuts =  0 [   0]
  --> max chng: dpmx=   1.7813E+00 dtmpmx=   3.1626E-02

== TH FLOW =====================================================================
 Step    508 Time=  2.48000E+01 Dt=  5.00000E-02 [y] snes_conv_reason:    3
  newton =   1 [     514] linear =   132 [     67589] cuts =  0 [   0]
  --> max chng: dpmx=   1.7835E+00 dtmpmx=   3.1572E-02

== TH FLOW =====================================================================
 Step    509 Time=  2.48500E+01 Dt=  5.00000E-02 [y] snes_conv_reason:    3
  newton =   1 [     515] linear =   132 [     67721] cuts =  0 [   0]
  --> max chng: dpmx=   1.7858E+00 dtmpmx=   3.1516E-02

== TH FLOW =====================================================================
 Step    510 Time=  2.49000E+01 Dt=  5.00000E-02 [y] snes_conv_reason:    3
  newton =   1 [     516] linear =   133 [     67854] cuts =  0 [   0]
  --> max chng: dpmx=   1.7881E+00 dtmpmx=   3.1474E-02

== TH FLOW =====================================================================
 Step    511 Time=  2.49500E+01 Dt=  5.00000E-02 [y] snes_conv_reason:    3
  newton =   1 [     517] linear =   130 [     67984] cuts =  0 [   0]
  --> max chng: dpmx=   1.7902E+00 dtmpmx=   3.1408E-02

== TH FLOW =====================================================================
 Step    512 Time=  2.50000E+01 Dt=  5.00000E-02 [y] snes_conv_reason:    3
  newton =   1 [     518] linear =   131 [     68115] cuts =  0 [   0]
  --> max chng: dpmx=   1.7923E+00 dtmpmx=   3.1371E-02

== TH FLOW =====================================================================
 Step    513 Time=  2.50500E+01 Dt=  5.00000E-02 [y] snes_conv_reason:    3
  newton =   1 [     519] linear =   127 [     68242] cuts =  0 [   0]
  --> max chng: dpmx=   1.7944E+00 dtmpmx=   3.1318E-02

== TH FLOW =====================================================================
 Step    514 Time=  2.51000E+01 Dt=  5.00000E-02 [y] snes_conv_reason:    3
  newton =   1 [     520] linear =   128 [     68370] cuts =  0 [   0]
  --> max chng: dpmx=   1.7963E+00 dtmpmx=   3.1262E-02

== TH FLOW =====================================================================
 Step    515 Time=  2.51500E+01 Dt=  5.00000E-02 [y] snes_conv_reason:    3
  newton =   1 [     521] linear =   131 [     68501] cuts =  0 [   0]
  --> max chng: dpmx=   1.7979E+00 dtmpmx=   3.1221E-02

== TH FLOW =====================================================================
 Step    516 Time=  2.52000E+01 Dt=  5.00000E-02 [y] snes_conv_reason:    3
  newton =   1 [     522] linear =   132 [     68633] cuts =  0 [   0]
  --> max chng: dpmx=   1.7996E+00 dtmpmx=   3.1157E-02

== TH FLOW =====================================================================
 Step    517 Time=  2.52500E+01 Dt=  5.00000E-02 [y] snes_conv_reason:    3
  newton =   1 [     523] linear =   125 [     68758] cuts =  0 [   0]
  --> max chng: dpmx=   1.8011E+00 dtmpmx=   3.1119E-02

== TH FLOW =====================================================================
 Step    518 Time=  2.53000E+01 Dt=  5.00000E-02 [y] snes_conv_reason:    3
  newton =   1 [     524] linear =   125 [     68883] cuts =  0 [   0]
  --> max chng: dpmx=   1.8025E+00 dtmpmx=   3.1068E-02

== TH FLOW =====================================================================
 Step    519 Time=  2.53500E+01 Dt=  5.00000E-02 [y] snes_conv_reason:    3
  newton =   1 [     525] linear =   128 [     69011] cuts =  0 [   0]
  --> max chng: dpmx=   1.8038E+00 dtmpmx=   3.1012E-02

== TH FLOW =====================================================================
 Step    520 Time=  2.54000E+01 Dt=  5.00000E-02 [y] snes_conv_reason:    3
  newton =   1 [     526] linear =   131 [     69142] cuts =  0 [   0]
  --> max chng: dpmx=   1.8046E+00 dtmpmx=   3.0973E-02

== TH FLOW =====================================================================
 Step    521 Time=  2.54500E+01 Dt=  5.00000E-02 [y] snes_conv_reason:    3
  newton =   1 [     527] linear =   129 [     69271] cuts =  0 [   0]
  --> max chng: dpmx=   1.8061E+00 dtmpmx=   3.0910E-02

== TH FLOW =====================================================================
 Step    522 Time=  2.55000E+01 Dt=  5.00000E-02 [y] snes_conv_reason:    3
  newton =   1 [     528] linear =   127 [     69398] cuts =  0 [   0]
  --> max chng: dpmx=   1.8068E+00 dtmpmx=   3.0872E-02

== TH FLOW =====================================================================
 Step    523 Time=  2.55500E+01 Dt=  5.00000E-02 [y] snes_conv_reason:    3
  newton =   1 [     529] linear =   130 [     69528] cuts =  0 [   0]
  --> max chng: dpmx=   1.8074E+00 dtmpmx=   3.0822E-02

== TH FLOW =====================================================================
 Step    524 Time=  2.56000E+01 Dt=  5.00000E-02 [y] snes_conv_reason:    3
  newton =   1 [     530] linear =   131 [     69659] cuts =  0 [   0]
  --> max chng: dpmx=   1.8079E+00 dtmpmx=   3.0766E-02

== TH FLOW =====================================================================
 Step    525 Time=  2.56500E+01 Dt=  5.00000E-02 [y] snes_conv_reason:    3
  newton =   1 [     531] linear =   127 [     69786] cuts =  0 [   0]
  --> max chng: dpmx=   1.8083E+00 dtmpmx=   3.0728E-02

== TH FLOW =====================================================================
 Step    526 Time=  2.57000E+01 Dt=  5.00000E-02 [y] snes_conv_reason:    3
  newton =   1 [     532] linear =   127 [     69913] cuts =  0 [   0]
  --> max chng: dpmx=   1.8085E+00 dtmpmx=   3.0667E-02

== TH FLOW =====================================================================
 Step    527 Time=  2.57500E+01 Dt=  5.00000E-02 [y] snes_conv_reason:    3
  newton =   1 [     533] linear =   127 [     70040] cuts =  0 [   0]
  --> max chng: dpmx=   1.8086E+00 dtmpmx=   3.0628E-02

== TH FLOW =====================================================================
 Step    528 Time=  2.58000E+01 Dt=  5.00000E-02 [y] snes_conv_reason:    3
  newton =   1 [     534] linear =   127 [     70167] cuts =  0 [   0]
  --> max chng: dpmx=   1.8083E+00 dtmpmx=   3.0579E-02

== TH FLOW =====================================================================
 Step    529 Time=  2.58500E+01 Dt=  5.00000E-02 [y] snes_conv_reason:    3
  newton =   1 [     535] linear =   131 [     70298] cuts =  0 [   0]
  --> max chng: dpmx=   1.8082E+00 dtmpmx=   3.0524E-02

== TH FLOW =====================================================================
 Step    530 Time=  2.59000E+01 Dt=  5.00000E-02 [y] snes_conv_reason:    3
  newton =   1 [     536] linear =   135 [     70433] cuts =  0 [   0]
  --> max chng: dpmx=   1.8077E+00 dtmpmx=   3.0487E-02

== TH FLOW =====================================================================
 Step    531 Time=  2.59500E+01 Dt=  5.00000E-02 [y] snes_conv_reason:    3
  newton =   1 [     537] linear =   132 [     70565] cuts =  0 [   0]
  --> max chng: dpmx=   1.8066E+00 dtmpmx=   3.0427E-02

== TH FLOW =====================================================================
 Step    532 Time=  2.60000E+01 Dt=  5.00000E-02 [y] snes_conv_reason:    3
  newton =   1 [     538] linear =   132 [     70697] cuts =  0 [   0]
  --> max chng: dpmx=   1.8058E+00 dtmpmx=   3.0389E-02

== TH FLOW =====================================================================
 Step    533 Time=  2.60500E+01 Dt=  5.00000E-02 [y] snes_conv_reason:    3
  newton =   1 [     539] linear =   132 [     70829] cuts =  0 [   0]
  --> max chng: dpmx=   1.8047E+00 dtmpmx=   3.0341E-02

== TH FLOW =====================================================================
 Step    534 Time=  2.61000E+01 Dt=  5.00000E-02 [y] snes_conv_reason:    3
  newton =   1 [     540] linear =   132 [     70961] cuts =  0 [   0]
  --> max chng: dpmx=   1.8031E+00 dtmpmx=   3.0285E-02

== TH FLOW =====================================================================
 Step    535 Time=  2.61500E+01 Dt=  5.00000E-02 [y] snes_conv_reason:    3
  newton =   1 [     541] linear =   131 [     71092] cuts =  0 [   0]
  --> max chng: dpmx=   1.8018E+00 dtmpmx=   3.0249E-02

== TH FLOW =====================================================================
 Step    536 Time=  2.62000E+01 Dt=  5.00000E-02 [y] snes_conv_reason:    3
  newton =   1 [     542] linear =   132 [     71224] cuts =  0 [   0]
  --> max chng: dpmx=   1.7996E+00 dtmpmx=   3.0191E-02

== TH FLOW =====================================================================
 Step    537 Time=  2.62500E+01 Dt=  5.00000E-02 [y] snes_conv_reason:    3
  newton =   1 [     543] linear =   133 [     71357] cuts =  0 [   0]
  --> max chng: dpmx=   1.7976E+00 dtmpmx=   3.0152E-02

== TH FLOW =====================================================================
 Step    538 Time=  2.63000E+01 Dt=  5.00000E-02 [y] snes_conv_reason:    3
  newton =   1 [     544] linear =   132 [     71489] cuts =  0 [   0]
  --> max chng: dpmx=   1.7952E+00 dtmpmx=   3.0106E-02

== TH FLOW =====================================================================
 Step    539 Time=  2.63500E+01 Dt=  5.00000E-02 [y] snes_conv_reason:    3
  newton =   1 [     545] linear =   122 [     71611] cuts =  0 [   0]
  --> max chng: dpmx=   1.7929E+00 dtmpmx=   3.0051E-02

== TH FLOW =====================================================================
 Step    540 Time=  2.64000E+01 Dt=  5.00000E-02 [y] snes_conv_reason:    3
  newton =   1 [     546] linear =   125 [     71736] cuts =  0 [   0]
  --> max chng: dpmx=   1.7898E+00 dtmpmx=   3.0015E-02

== TH FLOW =====================================================================
 Step    541 Time=  2.64500E+01 Dt=  5.00000E-02 [y] snes_conv_reason:    3
  newton =   1 [     547] linear =   132 [     71868] cuts =  0 [   0]
  --> max chng: dpmx=   1.7865E+00 dtmpmx=   2.9959E-02

== TH FLOW =====================================================================
 Step    542 Time=  2.65000E+01 Dt=  5.00000E-02 [y] snes_conv_reason:    3
  newton =   1 [     548] linear =   130 [     71998] cuts =  0 [   0]
  --> max chng: dpmx=   1.7831E+00 dtmpmx=   2.9920E-02

== TH FLOW =====================================================================
 Step    543 Time=  2.65500E+01 Dt=  5.00000E-02 [y] snes_conv_reason:    3
  newton =   1 [     549] linear =   130 [     72128] cuts =  0 [   0]
  --> max chng: dpmx=   1.7795E+00 dtmpmx=   2.9875E-02

== TH FLOW =====================================================================
 Step    544 Time=  2.66000E+01 Dt=  5.00000E-02 [y] snes_conv_reason:    3
  newton =   1 [     550] linear =   129 [     72257] cuts =  0 [   0]
  --> max chng: dpmx=   1.7756E+00 dtmpmx=   2.9819E-02

== TH FLOW =====================================================================
 Step    545 Time=  2.66500E+01 Dt=  5.00000E-02 [y] snes_conv_reason:    3
  newton =   1 [     551] linear =   130 [     72387] cuts =  0 [   0]
  --> max chng: dpmx=   1.7712E+00 dtmpmx=   2.9785E-02

== TH FLOW =====================================================================
 Step    546 Time=  2.67000E+01 Dt=  5.00000E-02 [y] snes_conv_reason:    3
  newton =   1 [     552] linear =   131 [     72518] cuts =  0 [   0]
  --> max chng: dpmx=   1.7667E+00 dtmpmx=   2.9730E-02

== TH FLOW =====================================================================
 Step    547 Time=  2.67500E+01 Dt=  5.00000E-02 [y] snes_conv_reason:    3
  newton =   1 [     553] linear =   131 [     72649] cuts =  0 [   0]
  --> max chng: dpmx=   1.7618E+00 dtmpmx=   2.9691E-02

== TH FLOW =====================================================================
 Step    548 Time=  2.68000E+01 Dt=  5.00000E-02 [y] snes_conv_reason:    3
  newton =   1 [     554] linear =   128 [     72777] cuts =  0 [   0]
  --> max chng: dpmx=   1.7566E+00 dtmpmx=   2.9647E-02

== TH FLOW =====================================================================
 Step    549 Time=  2.68500E+01 Dt=  5.00000E-02 [y] snes_conv_reason:    3
  newton =   1 [     555] linear =   118 [     72895] cuts =  0 [   0]
  --> max chng: dpmx=   1.7513E+00 dtmpmx=   2.9591E-02

== TH FLOW =====================================================================
 Step    550 Time=  2.69000E+01 Dt=  5.00000E-02 [y] snes_conv_reason:    3
  newton =   1 [     556] linear =   134 [     73029] cuts =  0 [   0]
  --> max chng: dpmx=   1.7452E+00 dtmpmx=   2.9558E-02

== TH FLOW =====================================================================
 Step    551 Time=  2.69500E+01 Dt=  5.00000E-02 [y] snes_conv_reason:    3
  newton =   1 [     557] linear =   131 [     73160] cuts =  0 [   0]
  --> max chng: dpmx=   1.7389E+00 dtmpmx=   2.9504E-02

== TH FLOW =====================================================================
 Step    552 Time=  2.70000E+01 Dt=  5.00000E-02 [y] snes_conv_reason:    3
  newton =   1 [     558] linear =   134 [     73294] cuts =  0 [   0]
  --> max chng: dpmx=   1.7327E+00 dtmpmx=   2.9465E-02

== TH FLOW =====================================================================
 Step    553 Time=  2.70500E+01 Dt=  5.00000E-02 [y] snes_conv_reason:    3
  newton =   1 [     559] linear =   118 [     73412] cuts =  0 [   0]
  --> max chng: dpmx=   1.7258E+00 dtmpmx=   2.9422E-02

== TH FLOW =====================================================================
 Step    554 Time=  2.71000E+01 Dt=  5.00000E-02 [y] snes_conv_reason:    3
  newton =   1 [     560] linear =   131 [     73543] cuts =  0 [   0]
  --> max chng: dpmx=   1.7185E+00 dtmpmx=   2.9367E-02

== TH FLOW =====================================================================
 Step    555 Time=  2.71500E+01 Dt=  5.00000E-02 [y] snes_conv_reason:    3
  newton =   1 [     561] linear =   131 [     73674] cuts =  0 [   0]
  --> max chng: dpmx=   1.7111E+00 dtmpmx=   2.9334E-02

== TH FLOW =====================================================================
 Step    556 Time=  2.72000E+01 Dt=  5.00000E-02 [y] snes_conv_reason:    3
  newton =   1 [     562] linear =   131 [     73805] cuts =  0 [   0]
  --> max chng: dpmx=   1.7034E+00 dtmpmx=   2.9282E-02

== TH FLOW =====================================================================
 Step    557 Time=  2.72500E+01 Dt=  5.00000E-02 [y] snes_conv_reason:    3
  newton =   1 [     563] linear =   126 [     73931] cuts =  0 [   0]
  --> max chng: dpmx=   1.6951E+00 dtmpmx=   2.9242E-02

== TH FLOW =====================================================================
 Step    558 Time=  2.73000E+01 Dt=  5.00000E-02 [y] snes_conv_reason:    3
  newton =   1 [     564] linear =   135 [     74066] cuts =  0 [   0]
  --> max chng: dpmx=   1.6866E+00 dtmpmx=   2.9200E-02

== TH FLOW =====================================================================
 Step    559 Time=  2.73500E+01 Dt=  5.00000E-02 [y] snes_conv_reason:    3
  newton =   1 [     565] linear =   134 [     74200] cuts =  0 [   0]
  --> max chng: dpmx=   1.6776E+00 dtmpmx=   2.9145E-02

== TH FLOW =====================================================================
 Step    560 Time=  2.74000E+01 Dt=  5.00000E-02 [y] snes_conv_reason:    3
  newton =   1 [     566] linear =   135 [     74335] cuts =  0 [   0]
  --> max chng: dpmx=   1.6686E+00 dtmpmx=   2.9114E-02

== TH FLOW =====================================================================
 Step    561 Time=  2.74500E+01 Dt=  5.00000E-02 [y] snes_conv_reason:    3
  newton =   1 [     567] linear =   130 [     74465] cuts =  0 [   0]
  --> max chng: dpmx=   1.6588E+00 dtmpmx=   2.9062E-02

== TH FLOW =====================================================================
 Step    562 Time=  2.75000E+01 Dt=  5.00000E-02 [y] snes_conv_reason:    3
  newton =   1 [     568] linear =   135 [     74600] cuts =  0 [   0]
  --> max chng: dpmx=   1.6490E+00 dtmpmx=   2.9023E-02

 Wall Clock Time:  7.5362E+01 [sec]   1.2560E+00 [min]   2.0934E-02 [hr]
