
===================
  PFLOTRAN v3.0.1
===================

 Extent of Gridded Domain
  X: 2.5000000000000000 - 97.500000000000000
  Y: 2.5000000000000000 - 1277.5000000000000
  Z: 2.5000000000000000 - 2.5000000000000000


=+=+=+=+=+=+=+=+=+=+=+=+=+=+=+=+=+=+=+=+=+=+=+=+=+=+=+=+=+=+=+=+=+=+=+=+=+=+=+=+

  Initial Condition

--------------------------------------------------------------------------------
          Flow Condition:   initial
                  Region:   all
--------------------------------------------------------------------------------

  Flow Condition: initial
    Synchronize time with update: no
    Time units: yr
    Length units: m
      Datum:
        Dataset: Unnamed Ascii Dataset
          Type: dataset_ascii_type
          Transient: no
          Array Rank:  3

    Sub Condition: pressure
      Type: hydrostatic
      Gradient:
        Dataset: Unnamed Ascii Dataset
          Type: dataset_ascii_type
          Transient: no
          Array Rank:  3
      Data:
        Dataset: Unnamed Ascii Dataset
          Type: dataset_ascii_type
          Transient: no
          Array Rank:  1

    Sub Condition: temperature
      Type: dirichlet
      Gradient:
      Data:
        Dataset: Unnamed Ascii Dataset
          Type: dataset_ascii_type
          Transient: no
          Array Rank:  1

--------------------------------------------------------------------------------

=+=+=+=+=+=+=+=+=+=+=+=+=+=+=+=+=+=+=+=+=+=+=+=+=+=+=+=+=+=+=+=+=+=+=+=+=+=+=+=+

  Boundary Condition

--------------------------------------------------------------------------------
          Flow Condition:   initial
                  Region:   north
--------------------------------------------------------------------------------

  Flow Condition: initial
    Synchronize time with update: no
    Time units: yr
    Length units: m
      Datum:
        Dataset: Unnamed Ascii Dataset
          Type: dataset_ascii_type
          Transient: no
          Array Rank:  3

    Sub Condition: pressure
      Type: hydrostatic
      Gradient:
        Dataset: Unnamed Ascii Dataset
          Type: dataset_ascii_type
          Transient: no
          Array Rank:  3
      Data:
        Dataset: Unnamed Ascii Dataset
          Type: dataset_ascii_type
          Transient: no
          Array Rank:  1

    Sub Condition: temperature
      Type: dirichlet
      Gradient:
      Data:
        Dataset: Unnamed Ascii Dataset
          Type: dataset_ascii_type
          Transient: no
          Array Rank:  1

--------------------------------------------------------------------------------

=+=+=+=+=+=+=+=+=+=+=+=+=+=+=+=+=+=+=+=+=+=+=+=+=+=+=+=+=+=+=+=+=+=+=+=+=+=+=+=+

  Boundary Condition

--------------------------------------------------------------------------------
          Flow Condition:   initial
                  Region:   south
--------------------------------------------------------------------------------

  Flow Condition: initial
    Synchronize time with update: no
    Time units: yr
    Length units: m
      Datum:
        Dataset: Unnamed Ascii Dataset
          Type: dataset_ascii_type
          Transient: no
          Array Rank:  3

    Sub Condition: pressure
      Type: hydrostatic
      Gradient:
        Dataset: Unnamed Ascii Dataset
          Type: dataset_ascii_type
          Transient: no
          Array Rank:  3
      Data:
        Dataset: Unnamed Ascii Dataset
          Type: dataset_ascii_type
          Transient: no
          Array Rank:  1

    Sub Condition: temperature
      Type: dirichlet
      Gradient:
      Data:
        Dataset: Unnamed Ascii Dataset
          Type: dataset_ascii_type
          Transient: no
          Array Rank:  1

--------------------------------------------------------------------------------

=+=+=+=+=+=+=+=+=+=+=+=+=+=+=+=+=+=+=+=+=+=+=+=+=+=+=+=+=+=+=+=+=+=+=+=+=+=+=+=+

  Source Sink

--------------------------------------------------------------------------------
          Flow Condition:   injection
                  Region:   heatpump_inject0
--------------------------------------------------------------------------------

  Flow Condition: injection
    Synchronize time with update: no
    Time units: yr
    Length units: m
      Datum:

    Sub Condition: rate
      Type: scaled volumetric rate
      Gradient:
      Data:
        Dataset: Unnamed Ascii Dataset
          Type: dataset_ascii_type
          Is transient?: yes
          Number of times:      3
          Is cyclic?: no
          Buffer:
            Rank:  2
            Dims:    1   3
            Buffer Slice Size:   0
          Array Rank:  1

    Sub Condition: temperature
      Type: dirichlet
      Gradient:
      Data:
        Dataset: Unnamed Ascii Dataset
          Type: dataset_ascii_type
          Transient: no
          Array Rank:  1

--------------------------------------------------------------------------------

 Requested processors =    32

FLOW Time Stepper
                 acceleration: on
       acceleration threshold: 5
       number of ramp entries: 5
                ramp entry #1: 2.0000
                ramp entry #2: 2.0000
                ramp entry #3: 2.0000
                ramp entry #4: 2.0000
                ramp entry #5: 2.0000
                ramp entry #6: 1.8000
                ramp entry #7: 1.6000
                ramp entry #8: 1.4000
                ramp entry #9: 1.2000
               ramp entry #10: 1.0000
               ramp entry #11: 1.0000
               ramp entry #12: 1.0000
               ramp entry #13: 1.0000
      maximum number of steps: 999999
constant time steps threshold: 5
       maximum number of cuts: 16
             reduction factor: 5.000000E-01
        maximum growth factor: 2.000000E+00

FLOW Newton Solver
                         atol: 1.000000E-50
                         rtol: 1.000000E-03
                         stol: 1.000000E-08
                         dtol: 1.000000E+04
                      maxnorm: 1.000000E+20
                    inftolres: -9.990000E+02
                    inftolupd: 1.000000E+00
                 inftolrelupd: -9.990000E+02
                 inftolsclres: -9.990000E+02
                     max iter: 50
                     min iter: 1
                         maxf: 10000
                  matrix type: baij
         precond. matrix type: baij
               inexact newton: off
            print convergence: on
   print detailed convergence: off
          check infinity norm: on

FLOW Linear Solver
                       solver: bcgs
               preconditioner: bjacobi
                         atol: 1.000000E-50
                         rtol: 1.000000E-05
                         dtol: 1.000000E+04
            maximum iteration: 10000

== TH FLOW =====================================================================
 Step      1 Time=  1.00000E-05 Dt=  1.00000E-05 [y] snes_conv_reason:   11
  newton =   1 [       1] linear =   120 [       120] cuts =  0 [   0]
  --> max chng: dpmx=   1.0769E-01 dtmpmx=   8.7124E-09

== TH FLOW =====================================================================
 Step      2 Time=  3.00000E-05 Dt=  2.00000E-05 [y] snes_conv_reason:   11
  newton =   1 [       2] linear =   127 [       247] cuts =  0 [   0]
  --> max chng: dpmx=   4.3098E-02 dtmpmx=   1.7209E-08

== TH FLOW =====================================================================
 Step      3 Time=  7.00000E-05 Dt=  4.00000E-05 [y] snes_conv_reason:   11
  newton =   1 [       3] linear =   120 [       367] cuts =  0 [   0]
  --> max chng: dpmx=   9.2420E-03 dtmpmx=   3.4322E-08

== TH FLOW =====================================================================
 Step      4 Time=  1.50000E-04 Dt=  8.00000E-05 [y] snes_conv_reason:   11
  newton =   1 [       4] linear =   105 [       472] cuts =  0 [   0]
  --> max chng: dpmx=   1.0414E-03 dtmpmx=   6.8624E-08

== TH FLOW =====================================================================
 Step      5 Time=  3.10000E-04 Dt=  1.60000E-04 [y] snes_conv_reason:   11
  newton =   1 [       5] linear =   124 [       596] cuts =  0 [   0]
  --> max chng: dpmx=   6.0034E-05 dtmpmx=   1.3725E-07

== TH FLOW =====================================================================
 Step      6 Time=  6.30000E-04 Dt=  3.20000E-04 [y] snes_conv_reason:   11
  newton =   1 [       6] linear =   126 [       722] cuts =  0 [   0]
  --> max chng: dpmx=   1.2374E-06 dtmpmx=   2.7450E-07

== TH FLOW =====================================================================
 Step      7 Time=  1.27000E-03 Dt=  6.40000E-04 [y] snes_conv_reason:   11
  newton =   1 [       7] linear =   126 [       848] cuts =  0 [   0]
  --> max chng: dpmx=   2.5822E-06 dtmpmx=   5.4899E-07

== TH FLOW =====================================================================
 Step      8 Time=  2.55000E-03 Dt=  1.28000E-03 [y] snes_conv_reason:   11
  newton =   1 [       8] linear =   126 [       974] cuts =  0 [   0]
  --> max chng: dpmx=   5.3033E-06 dtmpmx=   1.0980E-06

== TH FLOW =====================================================================
 Step      9 Time=  5.11000E-03 Dt=  2.56000E-03 [y] snes_conv_reason:   11
  newton =   1 [       9] linear =   132 [      1106] cuts =  0 [   0]
  --> max chng: dpmx=   1.1145E-05 dtmpmx=   2.1960E-06

== TH FLOW =====================================================================
 Step     10 Time=  1.02300E-02 Dt=  5.12000E-03 [y] snes_conv_reason:   11
  newton =   1 [      10] linear =   124 [      1230] cuts =  0 [   0]
  --> max chng: dpmx=   2.4524E-05 dtmpmx=   4.3919E-06

== TH FLOW =====================================================================
 Step     11 Time=  2.04700E-02 Dt=  1.02400E-02 [y] snes_conv_reason:   11
  newton =   1 [      11] linear =   127 [      1357] cuts =  0 [   0]
  --> max chng: dpmx=   5.7849E-05 dtmpmx=   8.7838E-06

== TH FLOW =====================================================================
 Step     12 Time=  4.09500E-02 Dt=  2.04800E-02 [y] snes_conv_reason:   11
  newton =   1 [      12] linear =   122 [      1479] cuts =  0 [   0]
  --> max chng: dpmx=   1.5057E-04 dtmpmx=   1.7568E-05

== TH FLOW =====================================================================
 Step     13 Time=  8.19100E-02 Dt=  4.09600E-02 [y] snes_conv_reason:   11
  newton =   1 [      13] linear =   132 [      1611] cuts =  0 [   0]
  --> max chng: dpmx=   4.3836E-04 dtmpmx=   3.5135E-05

== TH FLOW =====================================================================
 Step     14 Time=  1.00000E-01 Dt=  1.80900E-02 [y] snes_conv_reason:   11
  newton =   1 [      14] linear =   135 [      1746] cuts =  0 [   0]
  --> max chng: dpmx=   2.2045E-04 dtmpmx=   1.5518E-05

== TH FLOW =====================================================================
 Step     15 Time=  1.50000E-01 Dt=  5.00000E-02 [y] snes_conv_reason:   11
  newton =   1 [      15] linear =   128 [      1874] cuts =  0 [   0]
  --> max chng: dpmx=   8.1036E-04 dtmpmx=   4.2890E-05

== TH FLOW =====================================================================
 Step     16 Time=  2.00000E-01 Dt=  5.00000E-02 [y] snes_conv_reason:   11
  newton =   1 [      16] linear =   132 [      2006] cuts =  0 [   0]
  --> max chng: dpmx=   1.0089E-03 dtmpmx=   4.2890E-05

== TH FLOW =====================================================================
 Step     17 Time=  2.50000E-01 Dt=  5.00000E-02 [y] snes_conv_reason:   11
  newton =   3 [      19] linear =   401 [      2407] cuts =  0 [   0]
  --> max chng: dpmx=   5.4549E+02 dtmpmx=   3.0683E+00

== TH FLOW =====================================================================
 Step     18 Time=  3.00000E-01 Dt=  5.00000E-02 [y] snes_conv_reason:   11
  newton =   2 [      21] linear =   270 [      2677] cuts =  0 [   0]
  --> max chng: dpmx=   4.4385E+00 dtmpmx=   1.1959E+00

== TH FLOW =====================================================================
 Step     19 Time=  3.50000E-01 Dt=  5.00000E-02 [y] snes_conv_reason:   11
  newton =   2 [      23] linear =   277 [      2954] cuts =  0 [   0]
  --> max chng: dpmx=   3.2492E+00 dtmpmx=   8.5643E-01

== TH FLOW =====================================================================
 Step     20 Time=  4.00000E-01 Dt=  5.00000E-02 [y] snes_conv_reason:   11
  newton =   2 [      25] linear =   274 [      3228] cuts =  0 [   0]
  --> max chng: dpmx=   3.0269E+00 dtmpmx=   6.9449E-01

== TH FLOW =====================================================================
 Step     21 Time=  4.50000E-01 Dt=  5.00000E-02 [y] snes_conv_reason:   11
  newton =   2 [      27] linear =   280 [      3508] cuts =  0 [   0]
  --> max chng: dpmx=   2.8771E+00 dtmpmx=   5.9241E-01

== TH FLOW =====================================================================
 Step     22 Time=  5.00000E-01 Dt=  5.00000E-02 [y] snes_conv_reason:   11
  newton =   2 [      29] linear =   268 [      3776] cuts =  0 [   0]
  --> max chng: dpmx=   2.7659E+00 dtmpmx=   5.2120E-01

== TH FLOW =====================================================================
 Step     23 Time=  5.50000E-01 Dt=  5.00000E-02 [y] snes_conv_reason:   11
  newton =   2 [      31] linear =   267 [      4043] cuts =  0 [   0]
  --> max chng: dpmx=   2.6822E+00 dtmpmx=   4.7338E-01

== TH FLOW =====================================================================
 Step     24 Time=  6.00000E-01 Dt=  5.00000E-02 [y] snes_conv_reason:    3
  newton =   1 [      32] linear =   137 [      4180] cuts =  0 [   0]
  --> max chng: dpmx=   2.6161E+00 dtmpmx=   4.3580E-01

== TH FLOW =====================================================================
 Step     25 Time=  6.50000E-01 Dt=  5.00000E-02 [y] snes_conv_reason:    3
  newton =   1 [      33] linear =   131 [      4311] cuts =  0 [   0]
  --> max chng: dpmx=   2.5566E+00 dtmpmx=   4.0443E-01

== TH FLOW =====================================================================
 Step     26 Time=  7.00000E-01 Dt=  5.00000E-02 [y] snes_conv_reason:    3
  newton =   1 [      34] linear =   140 [      4451] cuts =  0 [   0]
  --> max chng: dpmx=   2.5059E+00 dtmpmx=   3.7778E-01

== TH FLOW =====================================================================
 Step     27 Time=  7.50000E-01 Dt=  5.00000E-02 [y] snes_conv_reason:    3
  newton =   1 [      35] linear =   138 [      4589] cuts =  0 [   0]
  --> max chng: dpmx=   2.4641E+00 dtmpmx=   3.5477E-01

== TH FLOW =====================================================================
 Step     28 Time=  8.00000E-01 Dt=  5.00000E-02 [y] snes_conv_reason:    3
  newton =   1 [      36] linear =   138 [      4727] cuts =  0 [   0]
  --> max chng: dpmx=   2.4246E+00 dtmpmx=   3.3465E-01

== TH FLOW =====================================================================
 Step     29 Time=  8.50000E-01 Dt=  5.00000E-02 [y] snes_conv_reason:    3
  newton =   1 [      37] linear =   135 [      4862] cuts =  0 [   0]
  --> max chng: dpmx=   2.3887E+00 dtmpmx=   3.1829E-01

== TH FLOW =====================================================================
 Step     30 Time=  9.00000E-01 Dt=  5.00000E-02 [y] snes_conv_reason:    3
  newton =   1 [      38] linear =   137 [      4999] cuts =  0 [   0]
  --> max chng: dpmx=   2.3558E+00 dtmpmx=   3.0388E-01

== TH FLOW =====================================================================
 Step     31 Time=  9.50000E-01 Dt=  5.00000E-02 [y] snes_conv_reason:    3
  newton =   1 [      39] linear =   136 [      5135] cuts =  0 [   0]
  --> max chng: dpmx=   2.3249E+00 dtmpmx=   2.9073E-01

== TH FLOW =====================================================================
 Step     32 Time=  1.00000E+00 Dt=  5.00000E-02 [y] snes_conv_reason:    3
  newton =   1 [      40] linear =   129 [      5264] cuts =  0 [   0]
  --> max chng: dpmx=   2.2965E+00 dtmpmx=   2.7867E-01

== TH FLOW =====================================================================
 Step     33 Time=  1.05000E+00 Dt=  5.00000E-02 [y] snes_conv_reason:    3
  newton =   1 [      41] linear =   137 [      5401] cuts =  0 [   0]
  --> max chng: dpmx=   2.2696E+00 dtmpmx=   2.6757E-01

== TH FLOW =====================================================================
 Step     34 Time=  1.10000E+00 Dt=  5.00000E-02 [y] snes_conv_reason:    3
  newton =   1 [      42] linear =   122 [      5523] cuts =  0 [   0]
  --> max chng: dpmx=   2.2438E+00 dtmpmx=   2.5730E-01

== TH FLOW =====================================================================
 Step     35 Time=  1.15000E+00 Dt=  5.00000E-02 [y] snes_conv_reason:    3
  newton =   1 [      43] linear =   134 [      5657] cuts =  0 [   0]
  --> max chng: dpmx=   2.2196E+00 dtmpmx=   2.4782E-01

== TH FLOW =====================================================================
 Step     36 Time=  1.20000E+00 Dt=  5.00000E-02 [y] snes_conv_reason:    3
  newton =   1 [      44] linear =   135 [      5792] cuts =  0 [   0]
  --> max chng: dpmx=   2.1955E+00 dtmpmx=   2.3981E-01

== TH FLOW =====================================================================
 Step     37 Time=  1.25000E+00 Dt=  5.00000E-02 [y] snes_conv_reason:    3
  newton =   1 [      45] linear =   137 [      5929] cuts =  0 [   0]
  --> max chng: dpmx=   2.1730E+00 dtmpmx=   2.3225E-01

== TH FLOW =====================================================================
 Step     38 Time=  1.30000E+00 Dt=  5.00000E-02 [y] snes_conv_reason:    3
  newton =   1 [      46] linear =   132 [      6061] cuts =  0 [   0]
  --> max chng: dpmx=   2.1508E+00 dtmpmx=   2.2510E-01

== TH FLOW =====================================================================
 Step     39 Time=  1.35000E+00 Dt=  5.00000E-02 [y] snes_conv_reason:    3
  newton =   1 [      47] linear =   134 [      6195] cuts =  0 [   0]
  --> max chng: dpmx=   2.1293E+00 dtmpmx=   2.1834E-01

== TH FLOW =====================================================================
 Step     40 Time=  1.40000E+00 Dt=  5.00000E-02 [y] snes_conv_reason:    3
  newton =   1 [      48] linear =   136 [      6331] cuts =  0 [   0]
  --> max chng: dpmx=   2.1082E+00 dtmpmx=   2.1193E-01

== TH FLOW =====================================================================
 Step     41 Time=  1.45000E+00 Dt=  5.00000E-02 [y] snes_conv_reason:    3
  newton =   1 [      49] linear =   135 [      6466] cuts =  0 [   0]
  --> max chng: dpmx=   2.0870E+00 dtmpmx=   2.0584E-01

== TH FLOW =====================================================================
 Step     42 Time=  1.50000E+00 Dt=  5.00000E-02 [y] snes_conv_reason:    3
  newton =   1 [      50] linear =   130 [      6596] cuts =  0 [   0]
  --> max chng: dpmx=   2.0680E+00 dtmpmx=   2.0011E-01

== TH FLOW =====================================================================
 Step     43 Time=  1.55000E+00 Dt=  5.00000E-02 [y] snes_conv_reason:    3
  newton =   1 [      51] linear =   132 [      6728] cuts =  0 [   0]
  --> max chng: dpmx=   2.0476E+00 dtmpmx=   1.9511E-01

== TH FLOW =====================================================================
 Step     44 Time=  1.60000E+00 Dt=  5.00000E-02 [y] snes_conv_reason:    3
  newton =   1 [      52] linear =   135 [      6863] cuts =  0 [   0]
  --> max chng: dpmx=   2.0291E+00 dtmpmx=   1.9031E-01

== TH FLOW =====================================================================
 Step     45 Time=  1.65000E+00 Dt=  5.00000E-02 [y] snes_conv_reason:    3
  newton =   1 [      53] linear =   133 [      6996] cuts =  0 [   0]
  --> max chng: dpmx=   2.0095E+00 dtmpmx=   1.8570E-01

== TH FLOW =====================================================================
 Step     46 Time=  1.70000E+00 Dt=  5.00000E-02 [y] snes_conv_reason:    3
  newton =   1 [      54] linear =   134 [      7130] cuts =  0 [   0]
  --> max chng: dpmx=   1.9908E+00 dtmpmx=   1.8126E-01

== TH FLOW =====================================================================
 Step     47 Time=  1.75000E+00 Dt=  5.00000E-02 [y] snes_conv_reason:    3
  newton =   1 [      55] linear =   134 [      7264] cuts =  0 [   0]
  --> max chng: dpmx=   1.9724E+00 dtmpmx=   1.7699E-01

== TH FLOW =====================================================================
 Step     48 Time=  1.80000E+00 Dt=  5.00000E-02 [y] snes_conv_reason:    3
  newton =   1 [      56] linear =   131 [      7395] cuts =  0 [   0]
  --> max chng: dpmx=   1.9544E+00 dtmpmx=   1.7289E-01

== TH FLOW =====================================================================
 Step     49 Time=  1.85000E+00 Dt=  5.00000E-02 [y] snes_conv_reason:    3
  newton =   1 [      57] linear =   134 [      7529] cuts =  0 [   0]
  --> max chng: dpmx=   1.9363E+00 dtmpmx=   1.6895E-01

== TH FLOW =====================================================================
 Step     50 Time=  1.90000E+00 Dt=  5.00000E-02 [y] snes_conv_reason:    3
  newton =   1 [      58] linear =   134 [      7663] cuts =  0 [   0]
  --> max chng: dpmx=   1.9186E+00 dtmpmx=   1.6548E-01

== TH FLOW =====================================================================
 Step     51 Time=  1.95000E+00 Dt=  5.00000E-02 [y] snes_conv_reason:    3
  newton =   1 [      59] linear =   132 [      7795] cuts =  0 [   0]
  --> max chng: dpmx=   1.9010E+00 dtmpmx=   1.6212E-01

== TH FLOW =====================================================================
 Step     52 Time=  2.00000E+00 Dt=  5.00000E-02 [y] snes_conv_reason:    3
  newton =   1 [      60] linear =   135 [      7930] cuts =  0 [   0]
  --> max chng: dpmx=   1.8833E+00 dtmpmx=   1.5885E-01

== TH FLOW =====================================================================
 Step     53 Time=  2.05000E+00 Dt=  5.00000E-02 [y] snes_conv_reason:    3
  newton =   1 [      61] linear =   134 [      8064] cuts =  0 [   0]
  --> max chng: dpmx=   1.8662E+00 dtmpmx=   1.5568E-01

== TH FLOW =====================================================================
 Step     54 Time=  2.10000E+00 Dt=  5.00000E-02 [y] snes_conv_reason:    3
  newton =   1 [      62] linear =   135 [      8199] cuts =  0 [   0]
  --> max chng: dpmx=   1.8492E+00 dtmpmx=   1.5261E-01

== TH FLOW =====================================================================
 Step     55 Time=  2.15000E+00 Dt=  5.00000E-02 [y] snes_conv_reason:    3
  newton =   1 [      63] linear =   133 [      8332] cuts =  0 [   0]
  --> max chng: dpmx=   1.8322E+00 dtmpmx=   1.4962E-01

== TH FLOW =====================================================================
 Step     56 Time=  2.20000E+00 Dt=  5.00000E-02 [y] snes_conv_reason:    3
  newton =   1 [      64] linear =   135 [      8467] cuts =  0 [   0]
  --> max chng: dpmx=   1.8155E+00 dtmpmx=   1.4673E-01

== TH FLOW =====================================================================
 Step     57 Time=  2.25000E+00 Dt=  5.00000E-02 [y] snes_conv_reason:    3
  newton =   1 [      65] linear =   132 [      8599] cuts =  0 [   0]
  --> max chng: dpmx=   1.7987E+00 dtmpmx=   1.4414E-01

== TH FLOW =====================================================================
 Step     58 Time=  2.30000E+00 Dt=  5.00000E-02 [y] snes_conv_reason:    3
  newton =   1 [      66] linear =   134 [      8733] cuts =  0 [   0]
  --> max chng: dpmx=   1.7815E+00 dtmpmx=   1.4164E-01

== TH FLOW =====================================================================
 Step     59 Time=  2.35000E+00 Dt=  5.00000E-02 [y] snes_conv_reason:    3
  newton =   1 [      67] linear =   127 [      8860] cuts =  0 [   0]
  --> max chng: dpmx=   1.7664E+00 dtmpmx=   1.3919E-01

== TH FLOW =====================================================================
 Step     60 Time=  2.40000E+00 Dt=  5.00000E-02 [y] snes_conv_reason:    3
  newton =   1 [      68] linear =   132 [      8992] cuts =  0 [   0]
  --> max chng: dpmx=   1.7485E+00 dtmpmx=   1.3680E-01

== TH FLOW =====================================================================
 Step     61 Time=  2.45000E+00 Dt=  5.00000E-02 [y] snes_conv_reason:    3
  newton =   1 [      69] linear =   135 [      9127] cuts =  0 [   0]
  --> max chng: dpmx=   1.7335E+00 dtmpmx=   1.3447E-01

== TH FLOW =====================================================================
 Step     62 Time=  2.50000E+00 Dt=  5.00000E-02 [y] snes_conv_reason:    3
  newton =   1 [      70] linear =   135 [      9262] cuts =  0 [   0]
  --> max chng: dpmx=   1.7168E+00 dtmpmx=   1.3219E-01

== TH FLOW =====================================================================
 Step     63 Time=  2.55000E+00 Dt=  5.00000E-02 [y] snes_conv_reason:    3
  newton =   1 [      71] linear =   131 [      9393] cuts =  0 [   0]
  --> max chng: dpmx=   1.7004E+00 dtmpmx=   1.2997E-01

== TH FLOW =====================================================================
 Step     64 Time=  2.60000E+00 Dt=  5.00000E-02 [y] snes_conv_reason:    3
  newton =   1 [      72] linear =   133 [      9526] cuts =  0 [   0]
  --> max chng: dpmx=   1.6850E+00 dtmpmx=   1.2794E-01

== TH FLOW =====================================================================
 Step     65 Time=  2.65000E+00 Dt=  5.00000E-02 [y] snes_conv_reason:    3
  newton =   1 [      73] linear =   130 [      9656] cuts =  0 [   0]
  --> max chng: dpmx=   1.6688E+00 dtmpmx=   1.2600E-01

== TH FLOW =====================================================================
 Step     66 Time=  2.70000E+00 Dt=  5.00000E-02 [y] snes_conv_reason:    3
  newton =   1 [      74] linear =   129 [      9785] cuts =  0 [   0]
  --> max chng: dpmx=   1.6521E+00 dtmpmx=   1.2409E-01

== TH FLOW =====================================================================
 Step     67 Time=  2.75000E+00 Dt=  5.00000E-02 [y] snes_conv_reason:    3
  newton =   1 [      75] linear =   132 [      9917] cuts =  0 [   0]
  --> max chng: dpmx=   1.6374E+00 dtmpmx=   1.2222E-01

== TH FLOW =====================================================================
 Step     68 Time=  2.80000E+00 Dt=  5.00000E-02 [y] snes_conv_reason:    3
  newton =   1 [      76] linear =   132 [     10049] cuts =  0 [   0]
  --> max chng: dpmx=   1.6215E+00 dtmpmx=   1.2038E-01

== TH FLOW =====================================================================
 Step     69 Time=  2.85000E+00 Dt=  5.00000E-02 [y] snes_conv_reason:    3
  newton =   1 [      77] linear =   131 [     10180] cuts =  0 [   0]
  --> max chng: dpmx=   1.6055E+00 dtmpmx=   1.1858E-01

== TH FLOW =====================================================================
 Step     70 Time=  2.90000E+00 Dt=  5.00000E-02 [y] snes_conv_reason:    3
  newton =   1 [      78] linear =   130 [     10310] cuts =  0 [   0]
  --> max chng: dpmx=   1.5899E+00 dtmpmx=   1.1682E-01

== TH FLOW =====================================================================
 Step     71 Time=  2.95000E+00 Dt=  5.00000E-02 [y] snes_conv_reason:    3
  newton =   1 [      79] linear =   134 [     10444] cuts =  0 [   0]
  --> max chng: dpmx=   1.5750E+00 dtmpmx=   1.1518E-01

== TH FLOW =====================================================================
 Step     72 Time=  3.00000E+00 Dt=  5.00000E-02 [y] snes_conv_reason:    3
  newton =   1 [      80] linear =   127 [     10571] cuts =  0 [   0]
  --> max chng: dpmx=   1.5583E+00 dtmpmx=   1.1362E-01

== TH FLOW =====================================================================
 Step     73 Time=  3.05000E+00 Dt=  5.00000E-02 [y] snes_conv_reason:    3
  newton =   1 [      81] linear =   123 [     10694] cuts =  0 [   0]
  --> max chng: dpmx=   1.5439E+00 dtmpmx=   1.1209E-01

== TH FLOW =====================================================================
 Step     74 Time=  3.10000E+00 Dt=  5.00000E-02 [y] snes_conv_reason:    3
  newton =   1 [      82] linear =   132 [     10826] cuts =  0 [   0]
  --> max chng: dpmx=   1.5281E+00 dtmpmx=   1.1058E-01

== TH FLOW =====================================================================
 Step     75 Time=  3.15000E+00 Dt=  5.00000E-02 [y] snes_conv_reason:    3
  newton =   1 [      83] linear =   136 [     10962] cuts =  0 [   0]
  --> max chng: dpmx=   1.5125E+00 dtmpmx=   1.0910E-01

== TH FLOW =====================================================================
 Step     76 Time=  3.20000E+00 Dt=  5.00000E-02 [y] snes_conv_reason:    3
  newton =   1 [      84] linear =   128 [     11090] cuts =  0 [   0]
  --> max chng: dpmx=   1.4974E+00 dtmpmx=   1.0764E-01

== TH FLOW =====================================================================
 Step     77 Time=  3.25000E+00 Dt=  5.00000E-02 [y] snes_conv_reason:    3
  newton =   1 [      85] linear =   129 [     11219] cuts =  0 [   0]
  --> max chng: dpmx=   1.4824E+00 dtmpmx=   1.0620E-01

== TH FLOW =====================================================================
 Step     78 Time=  3.30000E+00 Dt=  5.00000E-02 [y] snes_conv_reason:    3
  newton =   1 [      86] linear =   135 [     11354] cuts =  0 [   0]
  --> max chng: dpmx=   1.4669E+00 dtmpmx=   1.0484E-01

== TH FLOW =====================================================================
 Step     79 Time=  3.35000E+00 Dt=  5.00000E-02 [y] snes_conv_reason:    3
  newton =   1 [      87] linear =   133 [     11487] cuts =  0 [   0]
  --> max chng: dpmx=   1.4519E+00 dtmpmx=   1.0357E-01

== TH FLOW =====================================================================
 Step     80 Time=  3.40000E+00 Dt=  5.00000E-02 [y] snes_conv_reason:    3
  newton =   1 [      88] linear =   136 [     11623] cuts =  0 [   0]
  --> max chng: dpmx=   1.4368E+00 dtmpmx=   1.0231E-01

== TH FLOW =====================================================================
 Step     81 Time=  3.45000E+00 Dt=  5.00000E-02 [y] snes_conv_reason:    3
  newton =   1 [      89] linear =   130 [     11753] cuts =  0 [   0]
  --> max chng: dpmx=   1.4216E+00 dtmpmx=   1.0107E-01

== TH FLOW =====================================================================
 Step     82 Time=  3.50000E+00 Dt=  5.00000E-02 [y] snes_conv_reason:    3
  newton =   1 [      90] linear =   132 [     11885] cuts =  0 [   0]
  --> max chng: dpmx=   1.4066E+00 dtmpmx=   9.9841E-02

== TH FLOW =====================================================================
 Step     83 Time=  3.55000E+00 Dt=  5.00000E-02 [y] snes_conv_reason:    3
  newton =   1 [      91] linear =   132 [     12017] cuts =  0 [   0]
  --> max chng: dpmx=   1.3914E+00 dtmpmx=   9.8632E-02

== TH FLOW =====================================================================
 Step     84 Time=  3.60000E+00 Dt=  5.00000E-02 [y] snes_conv_reason:    3
  newton =   1 [      92] linear =   132 [     12149] cuts =  0 [   0]
  --> max chng: dpmx=   1.3767E+00 dtmpmx=   9.7440E-02

== TH FLOW =====================================================================
 Step     85 Time=  3.65000E+00 Dt=  5.00000E-02 [y] snes_conv_reason:    3
  newton =   1 [      93] linear =   133 [     12282] cuts =  0 [   0]
  --> max chng: dpmx=   1.3615E+00 dtmpmx=   9.6285E-02

== TH FLOW =====================================================================
 Step     86 Time=  3.70000E+00 Dt=  5.00000E-02 [y] snes_conv_reason:    3
  newton =   1 [      94] linear =   133 [     12415] cuts =  0 [   0]
  --> max chng: dpmx=   1.3468E+00 dtmpmx=   9.5221E-02

== TH FLOW =====================================================================
 Step     87 Time=  3.75000E+00 Dt=  5.00000E-02 [y] snes_conv_reason:    3
  newton =   1 [      95] linear =   132 [     12547] cuts =  0 [   0]
  --> max chng: dpmx=   1.3320E+00 dtmpmx=   9.4169E-02

== TH FLOW =====================================================================
 Step     88 Time=  3.80000E+00 Dt=  5.00000E-02 [y] snes_conv_reason:    3
  newton =   1 [      96] linear =   129 [     12676] cuts =  0 [   0]
  --> max chng: dpmx=   1.3169E+00 dtmpmx=   9.3127E-02

== TH FLOW =====================================================================
 Step     89 Time=  3.85000E+00 Dt=  5.00000E-02 [y] snes_conv_reason:    3
  newton =   1 [      97] linear =   137 [     12813] cuts =  0 [   0]
  --> max chng: dpmx=   1.3023E+00 dtmpmx=   9.2098E-02

== TH FLOW =====================================================================
 Step     90 Time=  3.90000E+00 Dt=  5.00000E-02 [y] snes_conv_reason:    3
  newton =   1 [      98] linear =   127 [     12940] cuts =  0 [   0]
  --> max chng: dpmx=   1.2875E+00 dtmpmx=   9.1080E-02

== TH FLOW =====================================================================
 Step     91 Time=  3.95000E+00 Dt=  5.00000E-02 [y] snes_conv_reason:    3
  newton =   1 [      99] linear =   131 [     13071] cuts =  0 [   0]
  --> max chng: dpmx=   1.2728E+00 dtmpmx=   9.0074E-02

== TH FLOW =====================================================================
 Step     92 Time=  4.00000E+00 Dt=  5.00000E-02 [y] snes_conv_reason:    3
  newton =   1 [     100] linear =   130 [     13201] cuts =  0 [   0]
  --> max chng: dpmx=   1.2577E+00 dtmpmx=   8.9080E-02

== TH FLOW =====================================================================
 Step     93 Time=  4.05000E+00 Dt=  5.00000E-02 [y] snes_conv_reason:    3
  newton =   1 [     101] linear =   128 [     13329] cuts =  0 [   0]
  --> max chng: dpmx=   1.2435E+00 dtmpmx=   8.8178E-02

== TH FLOW =====================================================================
 Step     94 Time=  4.10000E+00 Dt=  5.00000E-02 [y] snes_conv_reason:    3
  newton =   1 [     102] linear =   130 [     13459] cuts =  0 [   0]
  --> max chng: dpmx=   1.2285E+00 dtmpmx=   8.7284E-02

== TH FLOW =====================================================================
 Step     95 Time=  4.15000E+00 Dt=  5.00000E-02 [y] snes_conv_reason:    3
  newton =   1 [     103] linear =   134 [     13593] cuts =  0 [   0]
  --> max chng: dpmx=   1.2134E+00 dtmpmx=   8.6398E-02

== TH FLOW =====================================================================
 Step     96 Time=  4.20000E+00 Dt=  5.00000E-02 [y] snes_conv_reason:    3
  newton =   1 [     104] linear =   130 [     13723] cuts =  0 [   0]
  --> max chng: dpmx=   1.1995E+00 dtmpmx=   8.5521E-02

== TH FLOW =====================================================================
 Step     97 Time=  4.25000E+00 Dt=  5.00000E-02 [y] snes_conv_reason:    3
  newton =   1 [     105] linear =   130 [     13853] cuts =  0 [   0]
  --> max chng: dpmx=   1.1849E+00 dtmpmx=   8.4651E-02

== TH FLOW =====================================================================
 Step     98 Time=  4.30000E+00 Dt=  5.00000E-02 [y] snes_conv_reason:    3
  newton =   1 [     106] linear =   127 [     13980] cuts =  0 [   0]
  --> max chng: dpmx=   1.1698E+00 dtmpmx=   8.3791E-02

== TH FLOW =====================================================================
 Step     99 Time=  4.35000E+00 Dt=  5.00000E-02 [y] snes_conv_reason:    3
  newton =   1 [     107] linear =   130 [     14110] cuts =  0 [   0]
  --> max chng: dpmx=   1.1552E+00 dtmpmx=   8.2938E-02

== TH FLOW =====================================================================
 Step    100 Time=  4.40000E+00 Dt=  5.00000E-02 [y] snes_conv_reason:    3
  newton =   1 [     108] linear =   132 [     14242] cuts =  0 [   0]
  --> max chng: dpmx=   1.1411E+00 dtmpmx=   8.2149E-02

== TH FLOW =====================================================================
 Step    101 Time=  4.45000E+00 Dt=  5.00000E-02 [y] snes_conv_reason:    3
  newton =   1 [     109] linear =   132 [     14374] cuts =  0 [   0]
  --> max chng: dpmx=   1.1264E+00 dtmpmx=   8.1380E-02

== TH FLOW =====================================================================
 Step    102 Time=  4.50000E+00 Dt=  5.00000E-02 [y] snes_conv_reason:    3
  newton =   1 [     110] linear =   131 [     14505] cuts =  0 [   0]
  --> max chng: dpmx=   1.1118E+00 dtmpmx=   8.0617E-02

== TH FLOW =====================================================================
 Step    103 Time=  4.55000E+00 Dt=  5.00000E-02 [y] snes_conv_reason:    3
  newton =   1 [     111] linear =   131 [     14636] cuts =  0 [   0]
  --> max chng: dpmx=   1.0973E+00 dtmpmx=   7.9859E-02

== TH FLOW =====================================================================
 Step    104 Time=  4.60000E+00 Dt=  5.00000E-02 [y] snes_conv_reason:    3
  newton =   1 [     112] linear =   133 [     14769] cuts =  0 [   0]
  --> max chng: dpmx=   1.1044E+00 dtmpmx=   7.9108E-02

== TH FLOW =====================================================================
 Step    105 Time=  4.65000E+00 Dt=  5.00000E-02 [y] snes_conv_reason:    3
  newton =   1 [     113] linear =   130 [     14899] cuts =  0 [   0]
  --> max chng: dpmx=   1.1150E+00 dtmpmx=   7.8363E-02

== TH FLOW =====================================================================
 Step    106 Time=  4.70000E+00 Dt=  5.00000E-02 [y] snes_conv_reason:    3
  newton =   1 [     114] linear =   126 [     15025] cuts =  0 [   0]
  --> max chng: dpmx=   1.1258E+00 dtmpmx=   7.7624E-02

== TH FLOW =====================================================================
 Step    107 Time=  4.75000E+00 Dt=  5.00000E-02 [y] snes_conv_reason:    3
  newton =   1 [     115] linear =   127 [     15152] cuts =  0 [   0]
  --> max chng: dpmx=   1.1364E+00 dtmpmx=   7.6925E-02

== TH FLOW =====================================================================
 Step    108 Time=  4.80000E+00 Dt=  5.00000E-02 [y] snes_conv_reason:    3
  newton =   1 [     116] linear =   130 [     15282] cuts =  0 [   0]
  --> max chng: dpmx=   1.1471E+00 dtmpmx=   7.6257E-02

== TH FLOW =====================================================================
 Step    109 Time=  4.85000E+00 Dt=  5.00000E-02 [y] snes_conv_reason:    3
  newton =   1 [     117] linear =   133 [     15415] cuts =  0 [   0]
  --> max chng: dpmx=   1.1580E+00 dtmpmx=   7.5592E-02

== TH FLOW =====================================================================
 Step    110 Time=  4.90000E+00 Dt=  5.00000E-02 [y] snes_conv_reason:    3
  newton =   1 [     118] linear =   133 [     15548] cuts =  0 [   0]
  --> max chng: dpmx=   1.1687E+00 dtmpmx=   7.4932E-02

== TH FLOW =====================================================================
 Step    111 Time=  4.95000E+00 Dt=  5.00000E-02 [y] snes_conv_reason:    3
  newton =   1 [     119] linear =   128 [     15676] cuts =  0 [   0]
  --> max chng: dpmx=   1.1795E+00 dtmpmx=   7.4276E-02

== TH FLOW =====================================================================
 Step    112 Time=  5.00000E+00 Dt=  5.00000E-02 [y] snes_conv_reason:    3
  newton =   1 [     120] linear =   131 [     15807] cuts =  0 [   0]
  --> max chng: dpmx=   1.1901E+00 dtmpmx=   7.3624E-02

== TH FLOW =====================================================================
 Step    113 Time=  5.05000E+00 Dt=  5.00000E-02 [y] snes_conv_reason:    3
  newton =   1 [     121] linear =   133 [     15940] cuts =  0 [   0]
  --> max chng: dpmx=   1.2011E+00 dtmpmx=   7.2977E-02

== TH FLOW =====================================================================
 Step    114 Time=  5.10000E+00 Dt=  5.00000E-02 [y] snes_conv_reason:    3
  newton =   1 [     122] linear =   126 [     16066] cuts =  0 [   0]
  --> max chng: dpmx=   1.2119E+00 dtmpmx=   7.2353E-02

== TH FLOW =====================================================================
 Step    115 Time=  5.15000E+00 Dt=  5.00000E-02 [y] snes_conv_reason:    3
  newton =   1 [     123] linear =   135 [     16201] cuts =  0 [   0]
  --> max chng: dpmx=   1.2228E+00 dtmpmx=   7.1766E-02

== TH FLOW =====================================================================
 Step    116 Time=  5.20000E+00 Dt=  5.00000E-02 [y] snes_conv_reason:    3
  newton =   1 [     124] linear =   132 [     16333] cuts =  0 [   0]
  --> max chng: dpmx=   1.2336E+00 dtmpmx=   7.1182E-02

== TH FLOW =====================================================================
 Step    117 Time=  5.25000E+00 Dt=  5.00000E-02 [y] snes_conv_reason:    3
  newton =   1 [     125] linear =   141 [     16474] cuts =  0 [   0]
  --> max chng: dpmx=   1.2445E+00 dtmpmx=   7.0601E-02

== TH FLOW =====================================================================
 Step    118 Time=  5.30000E+00 Dt=  5.00000E-02 [y] snes_conv_reason:    3
  newton =   1 [     126] linear =   140 [     16614] cuts =  0 [   0]
  --> max chng: dpmx=   1.2554E+00 dtmpmx=   7.0023E-02

== TH FLOW =====================================================================
 Step    119 Time=  5.35000E+00 Dt=  5.00000E-02 [y] snes_conv_reason:    3
  newton =   1 [     127] linear =   133 [     16747] cuts =  0 [   0]
  --> max chng: dpmx=   1.2663E+00 dtmpmx=   6.9448E-02

== TH FLOW =====================================================================
 Step    120 Time=  5.40000E+00 Dt=  5.00000E-02 [y] snes_conv_reason:    3
  newton =   1 [     128] linear =   134 [     16881] cuts =  0 [   0]
  --> max chng: dpmx=   1.2772E+00 dtmpmx=   6.8877E-02

== TH FLOW =====================================================================
 Step    121 Time=  5.45000E+00 Dt=  5.00000E-02 [y] snes_conv_reason:    3
  newton =   1 [     129] linear =   132 [     17013] cuts =  0 [   0]
  --> max chng: dpmx=   1.2882E+00 dtmpmx=   6.8315E-02

== TH FLOW =====================================================================
 Step    122 Time=  5.50000E+00 Dt=  5.00000E-02 [y] snes_conv_reason:    3
  newton =   1 [     130] linear =   133 [     17146] cuts =  0 [   0]
  --> max chng: dpmx=   1.2992E+00 dtmpmx=   6.7796E-02

== TH FLOW =====================================================================
 Step    123 Time=  5.55000E+00 Dt=  5.00000E-02 [y] snes_conv_reason:    3
  newton =   1 [     131] linear =   136 [     17282] cuts =  0 [   0]
  --> max chng: dpmx=   1.3102E+00 dtmpmx=   6.7278E-02

== TH FLOW =====================================================================
 Step    124 Time=  5.60000E+00 Dt=  5.00000E-02 [y] snes_conv_reason:    3
  newton =   1 [     132] linear =   136 [     17418] cuts =  0 [   0]
  --> max chng: dpmx=   1.3211E+00 dtmpmx=   6.6763E-02

== TH FLOW =====================================================================
 Step    125 Time=  5.65000E+00 Dt=  5.00000E-02 [y] snes_conv_reason:    3
  newton =   1 [     133] linear =   132 [     17550] cuts =  0 [   0]
  --> max chng: dpmx=   1.3320E+00 dtmpmx=   6.6250E-02

== TH FLOW =====================================================================
 Step    126 Time=  5.70000E+00 Dt=  5.00000E-02 [y] snes_conv_reason:    3
  newton =   1 [     134] linear =   133 [     17683] cuts =  0 [   0]
  --> max chng: dpmx=   1.3433E+00 dtmpmx=   6.5739E-02

== TH FLOW =====================================================================
 Step    127 Time=  5.75000E+00 Dt=  5.00000E-02 [y] snes_conv_reason:    3
  newton =   1 [     135] linear =   132 [     17815] cuts =  0 [   0]
  --> max chng: dpmx=   1.3544E+00 dtmpmx=   6.5230E-02

== TH FLOW =====================================================================
 Step    128 Time=  5.80000E+00 Dt=  5.00000E-02 [y] snes_conv_reason:    3
  newton =   1 [     136] linear =   127 [     17942] cuts =  0 [   0]
  --> max chng: dpmx=   1.3654E+00 dtmpmx=   6.4724E-02

== TH FLOW =====================================================================
 Step    129 Time=  5.85000E+00 Dt=  5.00000E-02 [y] snes_conv_reason:    3
  newton =   1 [     137] linear =   130 [     18072] cuts =  0 [   0]
  --> max chng: dpmx=   1.3764E+00 dtmpmx=   6.4259E-02

== TH FLOW =====================================================================
 Step    130 Time=  5.90000E+00 Dt=  5.00000E-02 [y] snes_conv_reason:    3
  newton =   1 [     138] linear =   133 [     18205] cuts =  0 [   0]
  --> max chng: dpmx=   1.3877E+00 dtmpmx=   6.3797E-02

== TH FLOW =====================================================================
 Step    131 Time=  5.95000E+00 Dt=  5.00000E-02 [y] snes_conv_reason:    3
  newton =   1 [     139] linear =   125 [     18330] cuts =  0 [   0]
  --> max chng: dpmx=   1.3989E+00 dtmpmx=   6.3336E-02

== TH FLOW =====================================================================
 Step    132 Time=  6.00000E+00 Dt=  5.00000E-02 [y] snes_conv_reason:    3
  newton =   1 [     140] linear =   124 [     18454] cuts =  0 [   0]
  --> max chng: dpmx=   1.4098E+00 dtmpmx=   6.2878E-02

== TH FLOW =====================================================================
 Step    133 Time=  6.05000E+00 Dt=  5.00000E-02 [y] snes_conv_reason:    3
  newton =   1 [     141] linear =   126 [     18580] cuts =  0 [   0]
  --> max chng: dpmx=   1.4211E+00 dtmpmx=   6.2420E-02

== TH FLOW =====================================================================
 Step    134 Time=  6.10000E+00 Dt=  5.00000E-02 [y] snes_conv_reason:    3
  newton =   1 [     142] linear =   127 [     18707] cuts =  0 [   0]
  --> max chng: dpmx=   1.4323E+00 dtmpmx=   6.1964E-02

== TH FLOW =====================================================================
 Step    135 Time=  6.15000E+00 Dt=  5.00000E-02 [y] snes_conv_reason:    3
  newton =   1 [     143] linear =   126 [     18833] cuts =  0 [   0]
  --> max chng: dpmx=   1.4435E+00 dtmpmx=   6.1510E-02

== TH FLOW =====================================================================
 Step    136 Time=  6.20000E+00 Dt=  5.00000E-02 [y] snes_conv_reason:    3
  newton =   1 [     144] linear =   126 [     18959] cuts =  0 [   0]
  --> max chng: dpmx=   1.4543E+00 dtmpmx=   6.1085E-02

== TH FLOW =====================================================================
 Step    137 Time=  6.25000E+00 Dt=  5.00000E-02 [y] snes_conv_reason:    3
  newton =   1 [     145] linear =   132 [     19091] cuts =  0 [   0]
  --> max chng: dpmx=   1.4658E+00 dtmpmx=   6.0671E-02

== TH FLOW =====================================================================
 Step    138 Time=  6.30000E+00 Dt=  5.00000E-02 [y] snes_conv_reason:    3
  newton =   1 [     146] linear =   128 [     19219] cuts =  0 [   0]
  --> max chng: dpmx=   1.4771E+00 dtmpmx=   6.0257E-02

== TH FLOW =====================================================================
 Step    139 Time=  6.35000E+00 Dt=  5.00000E-02 [y] snes_conv_reason:    3
  newton =   1 [     147] linear =   131 [     19350] cuts =  0 [   0]
  --> max chng: dpmx=   1.4880E+00 dtmpmx=   5.9844E-02

== TH FLOW =====================================================================
 Step    140 Time=  6.40000E+00 Dt=  5.00000E-02 [y] snes_conv_reason:    3
  newton =   1 [     148] linear =   132 [     19482] cuts =  0 [   0]
  --> max chng: dpmx=   1.4994E+00 dtmpmx=   5.9432E-02

== TH FLOW =====================================================================
 Step    141 Time=  6.45000E+00 Dt=  5.00000E-02 [y] snes_conv_reason:    3
  newton =   1 [     149] linear =   127 [     19609] cuts =  0 [   0]
  --> max chng: dpmx=   1.5104E+00 dtmpmx=   5.9022E-02

== TH FLOW =====================================================================
 Step    142 Time=  6.50000E+00 Dt=  5.00000E-02 [y] snes_conv_reason:    3
  newton =   1 [     150] linear =   129 [     19738] cuts =  0 [   0]
  --> max chng: dpmx=   1.5220E+00 dtmpmx=   5.8612E-02

== TH FLOW =====================================================================
 Step    143 Time=  6.55000E+00 Dt=  5.00000E-02 [y] snes_conv_reason:    3
  newton =   1 [     151] linear =   125 [     19863] cuts =  0 [   0]
  --> max chng: dpmx=   1.5328E+00 dtmpmx=   5.8222E-02

== TH FLOW =====================================================================
 Step    144 Time=  6.60000E+00 Dt=  5.00000E-02 [y] snes_conv_reason:    3
  newton =   1 [     152] linear =   130 [     19993] cuts =  0 [   0]
  --> max chng: dpmx=   1.5444E+00 dtmpmx=   5.7847E-02

== TH FLOW =====================================================================
 Step    145 Time=  6.65000E+00 Dt=  5.00000E-02 [y] snes_conv_reason:    3
  newton =   1 [     153] linear =   134 [     20127] cuts =  0 [   0]
  --> max chng: dpmx=   1.5557E+00 dtmpmx=   5.7473E-02

== TH FLOW =====================================================================
 Step    146 Time=  6.70000E+00 Dt=  5.00000E-02 [y] snes_conv_reason:    3
  newton =   1 [     154] linear =   128 [     20255] cuts =  0 [   0]
  --> max chng: dpmx=   1.5668E+00 dtmpmx=   5.7100E-02

== TH FLOW =====================================================================
 Step    147 Time=  6.75000E+00 Dt=  5.00000E-02 [y] snes_conv_reason:    3
  newton =   1 [     155] linear =   129 [     20384] cuts =  0 [   0]
  --> max chng: dpmx=   1.5780E+00 dtmpmx=   5.6727E-02

== TH FLOW =====================================================================
 Step    148 Time=  6.80000E+00 Dt=  5.00000E-02 [y] snes_conv_reason:    3
  newton =   1 [     156] linear =   131 [     20515] cuts =  0 [   0]
  --> max chng: dpmx=   1.5891E+00 dtmpmx=   5.6355E-02

== TH FLOW =====================================================================
 Step    149 Time=  6.85000E+00 Dt=  5.00000E-02 [y] snes_conv_reason:    3
  newton =   1 [     157] linear =   122 [     20637] cuts =  0 [   0]
  --> max chng: dpmx=   1.6006E+00 dtmpmx=   5.5983E-02

== TH FLOW =====================================================================
 Step    150 Time=  6.90000E+00 Dt=  5.00000E-02 [y] snes_conv_reason:    3
  newton =   1 [     158] linear =   129 [     20766] cuts =  0 [   0]
  --> max chng: dpmx=   1.6119E+00 dtmpmx=   5.5624E-02

== TH FLOW =====================================================================
 Step    151 Time=  6.95000E+00 Dt=  5.00000E-02 [y] snes_conv_reason:    3
  newton =   1 [     159] linear =   130 [     20896] cuts =  0 [   0]
  --> max chng: dpmx=   1.6232E+00 dtmpmx=   5.5284E-02

== TH FLOW =====================================================================
 Step    152 Time=  7.00000E+00 Dt=  5.00000E-02 [y] snes_conv_reason:    3
  newton =   1 [     160] linear =   135 [     21031] cuts =  0 [   0]
  --> max chng: dpmx=   1.6347E+00 dtmpmx=   5.4944E-02

== TH FLOW =====================================================================
 Step    153 Time=  7.05000E+00 Dt=  5.00000E-02 [y] snes_conv_reason:    3
  newton =   1 [     161] linear =   131 [     21162] cuts =  0 [   0]
  --> max chng: dpmx=   1.6461E+00 dtmpmx=   5.4604E-02

== TH FLOW =====================================================================
 Step    154 Time=  7.10000E+00 Dt=  5.00000E-02 [y] snes_conv_reason:    3
  newton =   1 [     162] linear =   132 [     21294] cuts =  0 [   0]
  --> max chng: dpmx=   1.6573E+00 dtmpmx=   5.4265E-02

== TH FLOW =====================================================================
 Step    155 Time=  7.15000E+00 Dt=  5.00000E-02 [y] snes_conv_reason:    3
  newton =   1 [     163] linear =   131 [     21425] cuts =  0 [   0]
  --> max chng: dpmx=   1.6687E+00 dtmpmx=   5.3926E-02

== TH FLOW =====================================================================
 Step    156 Time=  7.20000E+00 Dt=  5.00000E-02 [y] snes_conv_reason:    3
  newton =   1 [     164] linear =   133 [     21558] cuts =  0 [   0]
  --> max chng: dpmx=   1.6800E+00 dtmpmx=   5.3588E-02

== TH FLOW =====================================================================
 Step    157 Time=  7.25000E+00 Dt=  5.00000E-02 [y] snes_conv_reason:    3
  newton =   1 [     165] linear =   127 [     21685] cuts =  0 [   0]
  --> max chng: dpmx=   1.6913E+00 dtmpmx=   5.3255E-02

== TH FLOW =====================================================================
 Step    158 Time=  7.30000E+00 Dt=  5.00000E-02 [y] snes_conv_reason:    3
  newton =   1 [     166] linear =   131 [     21816] cuts =  0 [   0]
  --> max chng: dpmx=   1.7027E+00 dtmpmx=   5.2945E-02

== TH FLOW =====================================================================
 Step    159 Time=  7.35000E+00 Dt=  5.00000E-02 [y] snes_conv_reason:    3
  newton =   1 [     167] linear =   123 [     21939] cuts =  0 [   0]
  --> max chng: dpmx=   1.7141E+00 dtmpmx=   5.2635E-02

== TH FLOW =====================================================================
 Step    160 Time=  7.40000E+00 Dt=  5.00000E-02 [y] snes_conv_reason:    3
  newton =   1 [     168] linear =   127 [     22066] cuts =  0 [   0]
  --> max chng: dpmx=   1.7252E+00 dtmpmx=   5.2324E-02

== TH FLOW =====================================================================
 Step    161 Time=  7.45000E+00 Dt=  5.00000E-02 [y] snes_conv_reason:    3
  newton =   1 [     169] linear =   133 [     22199] cuts =  0 [   0]
  --> max chng: dpmx=   1.7365E+00 dtmpmx=   5.2014E-02

== TH FLOW =====================================================================
 Step    162 Time=  7.50000E+00 Dt=  5.00000E-02 [y] snes_conv_reason:    3
  newton =   1 [     170] linear =   133 [     22332] cuts =  0 [   0]
  --> max chng: dpmx=   1.7478E+00 dtmpmx=   5.1705E-02

== TH FLOW =====================================================================
 Step    163 Time=  7.55000E+00 Dt=  5.00000E-02 [y] snes_conv_reason:    3
  newton =   1 [     171] linear =   123 [     22455] cuts =  0 [   0]
  --> max chng: dpmx=   1.7591E+00 dtmpmx=   5.1395E-02

== TH FLOW =====================================================================
 Step    164 Time=  7.60000E+00 Dt=  5.00000E-02 [y] snes_conv_reason:    3
  newton =   1 [     172] linear =   133 [     22588] cuts =  0 [   0]
  --> max chng: dpmx=   1.7700E+00 dtmpmx=   5.1086E-02

== TH FLOW =====================================================================
 Step    165 Time=  7.65000E+00 Dt=  5.00000E-02 [y] snes_conv_reason:    3
  newton =   1 [     173] linear =   126 [     22714] cuts =  0 [   0]
  --> max chng: dpmx=   1.7813E+00 dtmpmx=   5.0802E-02

== TH FLOW =====================================================================
 Step    166 Time=  7.70000E+00 Dt=  5.00000E-02 [y] snes_conv_reason:    3
  newton =   1 [     174] linear =   116 [     22830] cuts =  0 [   0]
  --> max chng: dpmx=   1.7924E+00 dtmpmx=   5.0517E-02

== TH FLOW =====================================================================
 Step    167 Time=  7.75000E+00 Dt=  5.00000E-02 [y] snes_conv_reason:    3
  newton =   1 [     175] linear =   131 [     22961] cuts =  0 [   0]
  --> max chng: dpmx=   1.8034E+00 dtmpmx=   5.0233E-02

== TH FLOW =====================================================================
 Step    168 Time=  7.80000E+00 Dt=  5.00000E-02 [y] snes_conv_reason:    3
  newton =   1 [     176] linear =   131 [     23092] cuts =  0 [   0]
  --> max chng: dpmx=   1.8144E+00 dtmpmx=   4.9948E-02

== TH FLOW =====================================================================
 Step    169 Time=  7.85000E+00 Dt=  5.00000E-02 [y] snes_conv_reason:    3
  newton =   1 [     177] linear =   123 [     23215] cuts =  0 [   0]
  --> max chng: dpmx=   1.8253E+00 dtmpmx=   4.9664E-02

== TH FLOW =====================================================================
 Step    170 Time=  7.90000E+00 Dt=  5.00000E-02 [y] snes_conv_reason:    3
  newton =   1 [     178] linear =   126 [     23341] cuts =  0 [   0]
  --> max chng: dpmx=   1.8360E+00 dtmpmx=   4.9380E-02

== TH FLOW =====================================================================
 Step    171 Time=  7.95000E+00 Dt=  5.00000E-02 [y] snes_conv_reason:    3
  newton =   1 [     179] linear =   125 [     23466] cuts =  0 [   0]
  --> max chng: dpmx=   1.8463E+00 dtmpmx=   4.9095E-02

== TH FLOW =====================================================================
 Step    172 Time=  8.00000E+00 Dt=  5.00000E-02 [y] snes_conv_reason:    3
  newton =   1 [     180] linear =   121 [     23587] cuts =  0 [   0]
  --> max chng: dpmx=   1.8569E+00 dtmpmx=   4.8830E-02

== TH FLOW =====================================================================
 Step    173 Time=  8.05000E+00 Dt=  5.00000E-02 [y] snes_conv_reason:    3
  newton =   1 [     181] linear =   127 [     23714] cuts =  0 [   0]
  --> max chng: dpmx=   1.8674E+00 dtmpmx=   4.8569E-02

== TH FLOW =====================================================================
 Step    174 Time=  8.10000E+00 Dt=  5.00000E-02 [y] snes_conv_reason:    3
  newton =   1 [     182] linear =   124 [     23838] cuts =  0 [   0]
  --> max chng: dpmx=   1.8774E+00 dtmpmx=   4.8307E-02

== TH FLOW =====================================================================
 Step    175 Time=  8.15000E+00 Dt=  5.00000E-02 [y] snes_conv_reason:    3
  newton =   1 [     183] linear =   130 [     23968] cuts =  0 [   0]
  --> max chng: dpmx=   1.8871E+00 dtmpmx=   4.8045E-02

== TH FLOW =====================================================================
 Step    176 Time=  8.20000E+00 Dt=  5.00000E-02 [y] snes_conv_reason:    3
  newton =   1 [     184] linear =   129 [     24097] cuts =  0 [   0]
  --> max chng: dpmx=   1.8966E+00 dtmpmx=   4.7782E-02

== TH FLOW =====================================================================
 Step    177 Time=  8.25000E+00 Dt=  5.00000E-02 [y] snes_conv_reason:    3
  newton =   1 [     185] linear =   123 [     24220] cuts =  0 [   0]
  --> max chng: dpmx=   1.9056E+00 dtmpmx=   4.7520E-02

== TH FLOW =====================================================================
 Step    178 Time=  8.30000E+00 Dt=  5.00000E-02 [y] snes_conv_reason:    3
  newton =   1 [     186] linear =   124 [     24344] cuts =  0 [   0]
  --> max chng: dpmx=   1.9143E+00 dtmpmx=   4.7258E-02

== TH FLOW =====================================================================
 Step    179 Time=  8.35000E+00 Dt=  5.00000E-02 [y] snes_conv_reason:    3
  newton =   1 [     187] linear =   132 [     24476] cuts =  0 [   0]
  --> max chng: dpmx=   1.9226E+00 dtmpmx=   4.7010E-02

== TH FLOW =====================================================================
 Step    180 Time=  8.40000E+00 Dt=  5.00000E-02 [y] snes_conv_reason:    3
  newton =   1 [     188] linear =   132 [     24608] cuts =  0 [   0]
  --> max chng: dpmx=   1.9305E+00 dtmpmx=   4.6768E-02

== TH FLOW =====================================================================
 Step    181 Time=  8.45000E+00 Dt=  5.00000E-02 [y] snes_conv_reason:    3
  newton =   1 [     189] linear =   129 [     24737] cuts =  0 [   0]
  --> max chng: dpmx=   1.9375E+00 dtmpmx=   4.6526E-02

== TH FLOW =====================================================================
 Step    182 Time=  8.50000E+00 Dt=  5.00000E-02 [y] snes_conv_reason:    3
  newton =   1 [     190] linear =   123 [     24860] cuts =  0 [   0]
  --> max chng: dpmx=   1.9442E+00 dtmpmx=   4.6284E-02

== TH FLOW =====================================================================
 Step    183 Time=  8.55000E+00 Dt=  5.00000E-02 [y] snes_conv_reason:    3
  newton =   1 [     191] linear =   122 [     24982] cuts =  0 [   0]
  --> max chng: dpmx=   1.9501E+00 dtmpmx=   4.6042E-02

== TH FLOW =====================================================================
 Step    184 Time=  8.60000E+00 Dt=  5.00000E-02 [y] snes_conv_reason:    3
  newton =   1 [     192] linear =   132 [     25114] cuts =  0 [   0]
  --> max chng: dpmx=   1.9555E+00 dtmpmx=   4.5799E-02

== TH FLOW =====================================================================
 Step    185 Time=  8.65000E+00 Dt=  5.00000E-02 [y] snes_conv_reason:    3
  newton =   1 [     193] linear =   118 [     25232] cuts =  0 [   0]
  --> max chng: dpmx=   1.9598E+00 dtmpmx=   4.5556E-02

== TH FLOW =====================================================================
 Step    186 Time=  8.70000E+00 Dt=  5.00000E-02 [y] snes_conv_reason:    3
  newton =   1 [     194] linear =   126 [     25358] cuts =  0 [   0]
  --> max chng: dpmx=   1.9628E+00 dtmpmx=   4.5324E-02

== TH FLOW =====================================================================
 Step    187 Time=  8.75000E+00 Dt=  5.00000E-02 [y] snes_conv_reason:    3
  newton =   1 [     195] linear =   126 [     25484] cuts =  0 [   0]
  --> max chng: dpmx=   1.9656E+00 dtmpmx=   4.5100E-02

== TH FLOW =====================================================================
 Step    188 Time=  8.80000E+00 Dt=  5.00000E-02 [y] snes_conv_reason:    3
  newton =   1 [     196] linear =   125 [     25609] cuts =  0 [   0]
  --> max chng: dpmx=   1.9666E+00 dtmpmx=   4.4876E-02

== TH FLOW =====================================================================
 Step    189 Time=  8.85000E+00 Dt=  5.00000E-02 [y] snes_conv_reason:    3
  newton =   1 [     197] linear =   125 [     25734] cuts =  0 [   0]
  --> max chng: dpmx=   1.9668E+00 dtmpmx=   4.4651E-02

== TH FLOW =====================================================================
 Step    190 Time=  8.90000E+00 Dt=  5.00000E-02 [y] snes_conv_reason:    3
  newton =   1 [     198] linear =   128 [     25862] cuts =  0 [   0]
  --> max chng: dpmx=   1.9658E+00 dtmpmx=   4.4426E-02

== TH FLOW =====================================================================
 Step    191 Time=  8.95000E+00 Dt=  5.00000E-02 [y] snes_conv_reason:    3
  newton =   1 [     199] linear =   121 [     25983] cuts =  0 [   0]
  --> max chng: dpmx=   1.9629E+00 dtmpmx=   4.4201E-02

== TH FLOW =====================================================================
 Step    192 Time=  9.00000E+00 Dt=  5.00000E-02 [y] snes_conv_reason:    3
  newton =   1 [     200] linear =   124 [     26107] cuts =  0 [   0]
  --> max chng: dpmx=   1.9593E+00 dtmpmx=   4.3975E-02

== TH FLOW =====================================================================
 Step    193 Time=  9.05000E+00 Dt=  5.00000E-02 [y] snes_conv_reason:    3
  newton =   1 [     201] linear =   129 [     26236] cuts =  0 [   0]
  --> max chng: dpmx=   1.9532E+00 dtmpmx=   4.3757E-02

== TH FLOW =====================================================================
 Step    194 Time=  9.10000E+00 Dt=  5.00000E-02 [y] snes_conv_reason:    3
  newton =   1 [     202] linear =   124 [     26360] cuts =  0 [   0]
  --> max chng: dpmx=   1.9459E+00 dtmpmx=   4.3549E-02

== TH FLOW =====================================================================
 Step    195 Time=  9.15000E+00 Dt=  5.00000E-02 [y] snes_conv_reason:    3
  newton =   1 [     203] linear =   131 [     26491] cuts =  0 [   0]
  --> max chng: dpmx=   1.9371E+00 dtmpmx=   4.3340E-02

== TH FLOW =====================================================================
 Step    196 Time=  9.20000E+00 Dt=  5.00000E-02 [y] snes_conv_reason:    3
  newton =   1 [     204] linear =   119 [     26610] cuts =  0 [   0]
  --> max chng: dpmx=   1.9259E+00 dtmpmx=   4.3131E-02

== TH FLOW =====================================================================
 Step    197 Time=  9.25000E+00 Dt=  5.00000E-02 [y] snes_conv_reason:    3
  newton =   1 [     205] linear =   129 [     26739] cuts =  0 [   0]
  --> max chng: dpmx=   1.9132E+00 dtmpmx=   4.2922E-02

== TH FLOW =====================================================================
 Step    198 Time=  9.30000E+00 Dt=  5.00000E-02 [y] snes_conv_reason:    3
  newton =   1 [     206] linear =   127 [     26866] cuts =  0 [   0]
  --> max chng: dpmx=   1.8981E+00 dtmpmx=   4.2712E-02

== TH FLOW =====================================================================
 Step    199 Time=  9.35000E+00 Dt=  5.00000E-02 [y] snes_conv_reason:    3
  newton =   1 [     207] linear =   123 [     26989] cuts =  0 [   0]
  --> max chng: dpmx=   1.8816E+00 dtmpmx=   4.2502E-02

== TH FLOW =====================================================================
 Step    200 Time=  9.40000E+00 Dt=  5.00000E-02 [y] snes_conv_reason:    3
  newton =   1 [     208] linear =   130 [     27119] cuts =  0 [   0]
  --> max chng: dpmx=   1.8622E+00 dtmpmx=   4.2296E-02

== TH FLOW =====================================================================
 Step    201 Time=  9.45000E+00 Dt=  5.00000E-02 [y] snes_conv_reason:    3
  newton =   1 [     209] linear =   133 [     27252] cuts =  0 [   0]
  --> max chng: dpmx=   1.8411E+00 dtmpmx=   4.2101E-02

== TH FLOW =====================================================================
 Step    202 Time=  9.50000E+00 Dt=  5.00000E-02 [y] snes_conv_reason:    3
  newton =   1 [     210] linear =   133 [     27385] cuts =  0 [   0]
  --> max chng: dpmx=   1.8178E+00 dtmpmx=   4.1907E-02

== TH FLOW =====================================================================
 Step    203 Time=  9.55000E+00 Dt=  5.00000E-02 [y] snes_conv_reason:    3
  newton =   1 [     211] linear =   133 [     27518] cuts =  0 [   0]
  --> max chng: dpmx=   1.7921E+00 dtmpmx=   4.1712E-02

== TH FLOW =====================================================================
 Step    204 Time=  9.60000E+00 Dt=  5.00000E-02 [y] snes_conv_reason:    3
  newton =   1 [     212] linear =   126 [     27644] cuts =  0 [   0]
  --> max chng: dpmx=   1.7642E+00 dtmpmx=   4.1516E-02

== TH FLOW =====================================================================
 Step    205 Time=  9.65000E+00 Dt=  5.00000E-02 [y] snes_conv_reason:    3
  newton =   1 [     213] linear =   121 [     27765] cuts =  0 [   0]
  --> max chng: dpmx=   1.7344E+00 dtmpmx=   4.1320E-02

== TH FLOW =====================================================================
 Step    206 Time=  9.70000E+00 Dt=  5.00000E-02 [y] snes_conv_reason:    3
  newton =   1 [     214] linear =   130 [     27895] cuts =  0 [   0]
  --> max chng: dpmx=   1.7019E+00 dtmpmx=   4.1124E-02

== TH FLOW =====================================================================
 Step    207 Time=  9.75000E+00 Dt=  5.00000E-02 [y] snes_conv_reason:    3
  newton =   1 [     215] linear =   131 [     28026] cuts =  0 [   0]
  --> max chng: dpmx=   1.6678E+00 dtmpmx=   4.0929E-02

== TH FLOW =====================================================================
 Step    208 Time=  9.80000E+00 Dt=  5.00000E-02 [y] snes_conv_reason:    3
  newton =   1 [     216] linear =   131 [     28157] cuts =  0 [   0]
  --> max chng: dpmx=   1.6314E+00 dtmpmx=   4.0748E-02

== TH FLOW =====================================================================
 Step    209 Time=  9.85000E+00 Dt=  5.00000E-02 [y] snes_conv_reason:    3
  newton =   1 [     217] linear =   129 [     28286] cuts =  0 [   0]
  --> max chng: dpmx=   1.5933E+00 dtmpmx=   4.0565E-02

== TH FLOW =====================================================================
 Step    210 Time=  9.90000E+00 Dt=  5.00000E-02 [y] snes_conv_reason:    3
  newton =   1 [     218] linear =   129 [     28415] cuts =  0 [   0]
  --> max chng: dpmx=   1.5529E+00 dtmpmx=   4.0383E-02

== TH FLOW =====================================================================
 Step    211 Time=  9.95000E+00 Dt=  5.00000E-02 [y] snes_conv_reason:    3
  newton =   1 [     219] linear =   126 [     28541] cuts =  0 [   0]
  --> max chng: dpmx=   1.5111E+00 dtmpmx=   4.0200E-02

== TH FLOW =====================================================================
 Step    212 Time=  1.00000E+01 Dt=  5.00000E-02 [y] snes_conv_reason:    3
  newton =   1 [     220] linear =   129 [     28670] cuts =  0 [   0]
  --> max chng: dpmx=   1.4679E+00 dtmpmx=   4.0016E-02

== TH FLOW =====================================================================
 Step    213 Time=  1.00500E+01 Dt=  5.00000E-02 [y] snes_conv_reason:    3
  newton =   1 [     221] linear =   130 [     28800] cuts =  0 [   0]
  --> max chng: dpmx=   1.4224E+00 dtmpmx=   3.9832E-02

== TH FLOW =====================================================================
 Step    214 Time=  1.01000E+01 Dt=  5.00000E-02 [y] snes_conv_reason:    3
  newton =   1 [     222] linear =   129 [     28929] cuts =  0 [   0]
  --> max chng: dpmx=   1.3766E+00 dtmpmx=   3.9648E-02

== TH FLOW =====================================================================
 Step    215 Time=  1.01500E+01 Dt=  5.00000E-02 [y] snes_conv_reason:    3
  newton =   1 [     223] linear =   129 [     29058] cuts =  0 [   0]
  --> max chng: dpmx=   1.3289E+00 dtmpmx=   3.9477E-02

== TH FLOW =====================================================================
 Step    216 Time=  1.02000E+01 Dt=  5.00000E-02 [y] snes_conv_reason:    3
  newton =   1 [     224] linear =   126 [     29184] cuts =  0 [   0]
  --> max chng: dpmx=   1.2807E+00 dtmpmx=   3.9307E-02

== TH FLOW =====================================================================
 Step    217 Time=  1.02500E+01 Dt=  5.00000E-02 [y] snes_conv_reason:    3
  newton =   1 [     225] linear =   131 [     29315] cuts =  0 [   0]
  --> max chng: dpmx=   1.2315E+00 dtmpmx=   3.9135E-02

== TH FLOW =====================================================================
 Step    218 Time=  1.03000E+01 Dt=  5.00000E-02 [y] snes_conv_reason:    3
  newton =   1 [     226] linear =   127 [     29442] cuts =  0 [   0]
  --> max chng: dpmx=   1.1817E+00 dtmpmx=   3.8963E-02

== TH FLOW =====================================================================
 Step    219 Time=  1.03500E+01 Dt=  5.00000E-02 [y] snes_conv_reason:    3
  newton =   1 [     227] linear =   129 [     29571] cuts =  0 [   0]
  --> max chng: dpmx=   1.1318E+00 dtmpmx=   3.8783E-02

== TH FLOW =====================================================================
 Step    220 Time=  1.04000E+01 Dt=  5.00000E-02 [y] snes_conv_reason:    3
  newton =   1 [     228] linear =   131 [     29702] cuts =  0 [   0]
  --> max chng: dpmx=   1.0813E+00 dtmpmx=   3.8526E-02

== TH FLOW =====================================================================
 Step    221 Time=  1.04500E+01 Dt=  5.00000E-02 [y] snes_conv_reason:    3
  newton =   1 [     229] linear =   131 [     29833] cuts =  0 [   0]
  --> max chng: dpmx=   1.0312E+00 dtmpmx=   3.8144E-02

== TH FLOW =====================================================================
 Step    222 Time=  1.05000E+01 Dt=  5.00000E-02 [y] snes_conv_reason:   11
  newton =   1 [     230] linear =   132 [     29965] cuts =  0 [   0]
  --> max chng: dpmx=   9.8123E-01 dtmpmx=   3.7643E-02

== TH FLOW =====================================================================
 Step    223 Time=  1.05500E+01 Dt=  5.00000E-02 [y] snes_conv_reason:   11
  newton =   1 [     231] linear =   134 [     30099] cuts =  0 [   0]
  --> max chng: dpmx=   9.3134E-01 dtmpmx=   3.7029E-02

== TH FLOW =====================================================================
 Step    224 Time=  1.06000E+01 Dt=  5.00000E-02 [y] snes_conv_reason:   11
  newton =   1 [     232] linear =   133 [     30232] cuts =  0 [   0]
  --> max chng: dpmx=   8.8236E-01 dtmpmx=   3.6308E-02

== TH FLOW =====================================================================
 Step    225 Time=  1.06500E+01 Dt=  5.00000E-02 [y] snes_conv_reason:   11
  newton =   1 [     233] linear =   134 [     30366] cuts =  0 [   0]
  --> max chng: dpmx=   8.3391E-01 dtmpmx=   3.5487E-02

== TH FLOW =====================================================================
 Step    226 Time=  1.07000E+01 Dt=  5.00000E-02 [y] snes_conv_reason:   11
  newton =   1 [     234] linear =   131 [     30497] cuts =  0 [   0]
  --> max chng: dpmx=   7.8645E-01 dtmpmx=   3.4577E-02

== TH FLOW =====================================================================
 Step    227 Time=  1.07500E+01 Dt=  5.00000E-02 [y] snes_conv_reason:   11
  newton =   1 [     235] linear =   129 [     30626] cuts =  0 [   0]
  --> max chng: dpmx=   7.4011E-01 dtmpmx=   3.3637E-02

== TH FLOW =====================================================================
 Step    228 Time=  1.08000E+01 Dt=  5.00000E-02 [y] snes_conv_reason:   11
  newton =   1 [     236] linear =   134 [     30760] cuts =  0 [   0]
  --> max chng: dpmx=   6.9475E-01 dtmpmx=   3.2662E-02

== TH FLOW =====================================================================
 Step    229 Time=  1.08500E+01 Dt=  5.00000E-02 [y] snes_conv_reason:   11
  newton =   1 [     237] linear =   134 [     30894] cuts =  0 [   0]
  --> max chng: dpmx=   6.5088E-01 dtmpmx=   3.1617E-02

== TH FLOW =====================================================================
 Step    230 Time=  1.09000E+01 Dt=  5.00000E-02 [y] snes_conv_reason:   11
  newton =   1 [     238] linear =   133 [     31027] cuts =  0 [   0]
  --> max chng: dpmx=   6.0837E-01 dtmpmx=   3.0514E-02

== TH FLOW =====================================================================
 Step    231 Time=  1.09500E+01 Dt=  5.00000E-02 [y] snes_conv_reason:   11
  newton =   1 [     239] linear =   133 [     31160] cuts =  0 [   0]
  --> max chng: dpmx=   5.6730E-01 dtmpmx=   2.9362E-02

== TH FLOW =====================================================================
 Step    232 Time=  1.10000E+01 Dt=  5.00000E-02 [y] snes_conv_reason:   11
  newton =   1 [     240] linear =   133 [     31293] cuts =  0 [   0]
  --> max chng: dpmx=   5.2777E-01 dtmpmx=   2.8170E-02

== TH FLOW =====================================================================
 Step    233 Time=  1.10500E+01 Dt=  5.00000E-02 [y] snes_conv_reason:   11
  newton =   1 [     241] linear =   135 [     31428] cuts =  0 [   0]
  --> max chng: dpmx=   4.9001E-01 dtmpmx=   2.6947E-02

== TH FLOW =====================================================================
 Step    234 Time=  1.11000E+01 Dt=  5.00000E-02 [y] snes_conv_reason:   11
  newton =   1 [     242] linear =   133 [     31561] cuts =  0 [   0]
  --> max chng: dpmx=   4.5388E-01 dtmpmx=   2.5704E-02

== TH FLOW =====================================================================
 Step    235 Time=  1.11500E+01 Dt=  5.00000E-02 [y] snes_conv_reason:   11
  newton =   1 [     243] linear =   136 [     31697] cuts =  0 [   0]
  --> max chng: dpmx=   4.1943E-01 dtmpmx=   2.4449E-02

== TH FLOW =====================================================================
 Step    236 Time=  1.12000E+01 Dt=  5.00000E-02 [y] snes_conv_reason:   11
  newton =   1 [     244] linear =   133 [     31830] cuts =  0 [   0]
  --> max chng: dpmx=   3.8667E-01 dtmpmx=   2.3190E-02

== TH FLOW =====================================================================
 Step    237 Time=  1.12500E+01 Dt=  5.00000E-02 [y] snes_conv_reason:   11
  newton =   1 [     245] linear =   136 [     31966] cuts =  0 [   0]
  --> max chng: dpmx=   3.5579E-01 dtmpmx=   2.1935E-02

== TH FLOW =====================================================================
 Step    238 Time=  1.13000E+01 Dt=  5.00000E-02 [y] snes_conv_reason:   11
  newton =   1 [     246] linear =   134 [     32100] cuts =  0 [   0]
  --> max chng: dpmx=   3.2656E-01 dtmpmx=   2.0692E-02

== TH FLOW =====================================================================
 Step    239 Time=  1.13500E+01 Dt=  5.00000E-02 [y] snes_conv_reason:   11
  newton =   1 [     247] linear =   136 [     32236] cuts =  0 [   0]
  --> max chng: dpmx=   2.9910E-01 dtmpmx=   1.9466E-02

== TH FLOW =====================================================================
 Step    240 Time=  1.14000E+01 Dt=  5.00000E-02 [y] snes_conv_reason:   11
  newton =   1 [     248] linear =   136 [     32372] cuts =  0 [   0]
  --> max chng: dpmx=   2.7323E-01 dtmpmx=   1.8265E-02

== TH FLOW =====================================================================
 Step    241 Time=  1.14500E+01 Dt=  5.00000E-02 [y] snes_conv_reason:   11
  newton =   1 [     249] linear =   136 [     32508] cuts =  0 [   0]
  --> max chng: dpmx=   2.4915E-01 dtmpmx=   1.7092E-02

== TH FLOW =====================================================================
 Step    242 Time=  1.15000E+01 Dt=  5.00000E-02 [y] snes_conv_reason:   11
  newton =   1 [     250] linear =   135 [     32643] cuts =  0 [   0]
  --> max chng: dpmx=   2.2658E-01 dtmpmx=   1.5954E-02

== TH FLOW =====================================================================
 Step    243 Time=  1.15500E+01 Dt=  5.00000E-02 [y] snes_conv_reason:   11
  newton =   1 [     251] linear =   136 [     32779] cuts =  0 [   0]
  --> max chng: dpmx=   2.0566E-01 dtmpmx=   1.4853E-02

== TH FLOW =====================================================================
 Step    244 Time=  1.16000E+01 Dt=  5.00000E-02 [y] snes_conv_reason:   11
  newton =   1 [     252] linear =   138 [     32917] cuts =  0 [   0]
  --> max chng: dpmx=   1.8623E-01 dtmpmx=   1.3793E-02

== TH FLOW =====================================================================
 Step    245 Time=  1.16500E+01 Dt=  5.00000E-02 [y] snes_conv_reason:   11
  newton =   1 [     253] linear =   137 [     33054] cuts =  0 [   0]
  --> max chng: dpmx=   1.6823E-01 dtmpmx=   1.2777E-02

== TH FLOW =====================================================================
 Step    246 Time=  1.17000E+01 Dt=  5.00000E-02 [y] snes_conv_reason:   11
  newton =   1 [     254] linear =   138 [     33192] cuts =  0 [   0]
  --> max chng: dpmx=   1.5163E-01 dtmpmx=   1.1806E-02

== TH FLOW =====================================================================
 Step    247 Time=  1.17500E+01 Dt=  5.00000E-02 [y] snes_conv_reason:   11
  newton =   1 [     255] linear =   138 [     33330] cuts =  0 [   0]
  --> max chng: dpmx=   1.3637E-01 dtmpmx=   1.0882E-02

== TH FLOW =====================================================================
 Step    248 Time=  1.18000E+01 Dt=  5.00000E-02 [y] snes_conv_reason:   11
  newton =   1 [     256] linear =   138 [     33468] cuts =  0 [   0]
  --> max chng: dpmx=   1.2234E-01 dtmpmx=   1.0006E-02

== TH FLOW =====================================================================
 Step    249 Time=  1.18500E+01 Dt=  5.00000E-02 [y] snes_conv_reason:   11
  newton =   1 [     257] linear =   138 [     33606] cuts =  0 [   0]
  --> max chng: dpmx=   1.0952E-01 dtmpmx=   9.1779E-03

== TH FLOW =====================================================================
 Step    250 Time=  1.19000E+01 Dt=  5.00000E-02 [y] snes_conv_reason:   11
  newton =   1 [     258] linear =   139 [     33745] cuts =  0 [   0]
  --> max chng: dpmx=   9.7796E-02 dtmpmx=   8.3984E-03

== TH FLOW =====================================================================
 Step    251 Time=  1.19500E+01 Dt=  5.00000E-02 [y] snes_conv_reason:   11
  newton =   1 [     259] linear =   138 [     33883] cuts =  0 [   0]
  --> max chng: dpmx=   8.7137E-02 dtmpmx=   7.6668E-03

== TH FLOW =====================================================================
 Step    252 Time=  1.20000E+01 Dt=  5.00000E-02 [y] snes_conv_reason:   11
  newton =   1 [     260] linear =   142 [     34025] cuts =  0 [   0]
  --> max chng: dpmx=   7.7454E-02 dtmpmx=   6.9824E-03

== TH FLOW =====================================================================
 Step    253 Time=  1.20500E+01 Dt=  5.00000E-02 [y] snes_conv_reason:   11
  newton =   1 [     261] linear =   140 [     34165] cuts =  0 [   0]
  --> max chng: dpmx=   6.8672E-02 dtmpmx=   6.3441E-03

== TH FLOW =====================================================================
 Step    254 Time=  1.21000E+01 Dt=  5.00000E-02 [y] snes_conv_reason:   11
  newton =   1 [     262] linear =   139 [     34304] cuts =  0 [   0]
  --> max chng: dpmx=   6.0728E-02 dtmpmx=   5.7505E-03

== TH FLOW =====================================================================
 Step    255 Time=  1.21500E+01 Dt=  5.00000E-02 [y] snes_conv_reason:   11
  newton =   1 [     263] linear =   138 [     34442] cuts =  0 [   0]
  --> max chng: dpmx=   5.3597E-02 dtmpmx=   5.2003E-03

== TH FLOW =====================================================================
 Step    256 Time=  1.22000E+01 Dt=  5.00000E-02 [y] snes_conv_reason:   11
  newton =   1 [     264] linear =   139 [     34581] cuts =  0 [   0]
  --> max chng: dpmx=   4.7160E-02 dtmpmx=   4.6916E-03

== TH FLOW =====================================================================
 Step    257 Time=  1.22500E+01 Dt=  5.00000E-02 [y] snes_conv_reason:   11
  newton =   1 [     265] linear =   138 [     34719] cuts =  0 [   0]
  --> max chng: dpmx=   4.1407E-02 dtmpmx=   4.2228E-03

[...]
 Step    493 Time=  2.40500E+01 Dt=  5.00000E-02 [y] snes_conv_reason:   11
  newton =   1 [     501] linear =   104 [     64653] cuts =  0 [   0]
  --> max chng: dpmx=   4.3132E-05 dtmpmx=   5.4678E-07

== TH FLOW =====================================================================
 Step    494 Time=  2.41000E+01 Dt=  5.00000E-02 [y] snes_conv_reason:   11
  newton =   1 [     502] linear =   127 [     64780] cuts =  0 [   0]
  --> max chng: dpmx=   4.2860E-05 dtmpmx=   5.4601E-07

== TH FLOW =====================================================================
 Step    495 Time=  2.41500E+01 Dt=  5.00000E-02 [y] snes_conv_reason:   11
  newton =   1 [     503] linear =   116 [     64896] cuts =  0 [   0]
  --> max chng: dpmx=   4.2570E-05 dtmpmx=   5.4523E-07

== TH FLOW =====================================================================
 Step    496 Time=  2.42000E+01 Dt=  5.00000E-02 [y] snes_conv_reason:   11
  newton =   1 [     504] linear =   109 [     65005] cuts =  0 [   0]
  --> max chng: dpmx=   4.2270E-05 dtmpmx=   5.4448E-07

== TH FLOW =====================================================================
 Step    497 Time=  2.42500E+01 Dt=  5.00000E-02 [y] snes_conv_reason:   11
  newton =   1 [     505] linear =   124 [     65129] cuts =  0 [   0]
  --> max chng: dpmx=   4.1930E-05 dtmpmx=   5.4367E-07

== TH FLOW =====================================================================
 Step    498 Time=  2.43000E+01 Dt=  5.00000E-02 [y] snes_conv_reason:   11
  newton =   1 [     506] linear =   121 [     65250] cuts =  0 [   0]
  --> max chng: dpmx=   4.1587E-05 dtmpmx=   5.4290E-07

== TH FLOW =====================================================================
 Step    499 Time=  2.43500E+01 Dt=  5.00000E-02 [y] snes_conv_reason:   11
  newton =   1 [     507] linear =   119 [     65369] cuts =  0 [   0]
  --> max chng: dpmx=   4.1228E-05 dtmpmx=   5.4212E-07

== TH FLOW =====================================================================
 Step    500 Time=  2.44000E+01 Dt=  5.00000E-02 [y] snes_conv_reason:   11
  newton =   1 [     508] linear =   117 [     65486] cuts =  0 [   0]
  --> max chng: dpmx=   4.0851E-05 dtmpmx=   5.4133E-07

== TH FLOW =====================================================================
 Step    501 Time=  2.44500E+01 Dt=  5.00000E-02 [y] snes_conv_reason:   11
  newton =   1 [     509] linear =   125 [     65611] cuts =  0 [   0]
  --> max chng: dpmx=   4.0463E-05 dtmpmx=   5.4056E-07

== TH FLOW =====================================================================
 Step    502 Time=  2.45000E+01 Dt=  5.00000E-02 [y] snes_conv_reason:   11
  newton =   1 [     510] linear =   118 [     65729] cuts =  0 [   0]
  --> max chng: dpmx=   4.0074E-05 dtmpmx=   5.3980E-07

== TH FLOW =====================================================================
 Step    503 Time=  2.45500E+01 Dt=  5.00000E-02 [y] snes_conv_reason:   11
  newton =   1 [     511] linear =   119 [     65848] cuts =  0 [   0]
  --> max chng: dpmx=   3.9653E-05 dtmpmx=   5.3899E-07

== TH FLOW =====================================================================
 Step    504 Time=  2.46000E+01 Dt=  5.00000E-02 [y] snes_conv_reason:   11
  newton =   1 [     512] linear =   116 [     65964] cuts =  0 [   0]
  --> max chng: dpmx=   3.9238E-05 dtmpmx=   5.3818E-07

== TH FLOW =====================================================================
 Step    505 Time=  2.46500E+01 Dt=  5.00000E-02 [y] snes_conv_reason:   11
  newton =   1 [     513] linear =   114 [     66078] cuts =  0 [   0]
  --> max chng: dpmx=   3.8814E-05 dtmpmx=   5.3740E-07

== TH FLOW =====================================================================
 Step    506 Time=  2.47000E+01 Dt=  5.00000E-02 [y] snes_conv_reason:   11
  newton =   1 [     514] linear =   119 [     66197] cuts =  0 [   0]
  --> max chng: dpmx=   3.8390E-05 dtmpmx=   5.3655E-07

== TH FLOW =====================================================================
 Step    507 Time=  2.47500E+01 Dt=  5.00000E-02 [y] snes_conv_reason:   11
  newton =   1 [     515] linear =   121 [     66318] cuts =  0 [   0]
  --> max chng: dpmx=   3.7943E-05 dtmpmx=   5.3577E-07

== TH FLOW =====================================================================
 Step    508 Time=  2.48000E+01 Dt=  5.00000E-02 [y] snes_conv_reason:   11
  newton =   1 [     516] linear =   121 [     66439] cuts =  0 [   0]
  --> max chng: dpmx=   3.7497E-05 dtmpmx=   5.3484E-07

== TH FLOW =====================================================================
 Step    509 Time=  2.48500E+01 Dt=  5.00000E-02 [y] snes_conv_reason:   11
  newton =   1 [     517] linear =   119 [     66558] cuts =  0 [   0]
  --> max chng: dpmx=   3.7055E-05 dtmpmx=   5.3375E-07

== TH FLOW =====================================================================
 Step    510 Time=  2.49000E+01 Dt=  5.00000E-02 [y] snes_conv_reason:   11
  newton =   1 [     518] linear =   126 [     66684] cuts =  0 [   0]
  --> max chng: dpmx=   3.6601E-05 dtmpmx=   5.3213E-07

== TH FLOW =====================================================================
 Step    511 Time=  2.49500E+01 Dt=  5.00000E-02 [y] snes_conv_reason:   11
  newton =   1 [     519] linear =   122 [     66806] cuts =  0 [   0]
  --> max chng: dpmx=   3.6137E-05 dtmpmx=   5.3023E-07

== TH FLOW =====================================================================
 Step    512 Time=  2.50000E+01 Dt=  5.00000E-02 [y] snes_conv_reason:   11
  newton =   1 [     520] linear =   126 [     66932] cuts =  0 [   0]
  --> max chng: dpmx=   3.5684E-05 dtmpmx=   5.2798E-07

== TH FLOW =====================================================================
 Step    513 Time=  2.50500E+01 Dt=  5.00000E-02 [y] snes_conv_reason:   11
  newton =   1 [     521] linear =   119 [     67051] cuts =  0 [   0]
  --> max chng: dpmx=   3.5219E-05 dtmpmx=   5.2534E-07

== TH FLOW =====================================================================
 Step    514 Time=  2.51000E+01 Dt=  5.00000E-02 [y] snes_conv_reason:   11
  newton =   1 [     522] linear =   127 [     67178] cuts =  0 [   0]
  --> max chng: dpmx=   3.4754E-05 dtmpmx=   5.2247E-07

== TH FLOW =====================================================================
 Step    515 Time=  2.51500E+01 Dt=  5.00000E-02 [y] snes_conv_reason:   11
  newton =   1 [     523] linear =   119 [     67297] cuts =  0 [   0]
  --> max chng: dpmx=   3.4283E-05 dtmpmx=   5.1929E-07

== TH FLOW =====================================================================
 Step    516 Time=  2.52000E+01 Dt=  5.00000E-02 [y] snes_conv_reason:   11
  newton =   1 [     524] linear =   124 [     67421] cuts =  0 [   0]
  --> max chng: dpmx=   3.3824E-05 dtmpmx=   5.1599E-07

== TH FLOW =====================================================================
 Step    517 Time=  2.52500E+01 Dt=  5.00000E-02 [y] snes_conv_reason:   11
  newton =   1 [     525] linear =   124 [     67545] cuts =  0 [   0]
  --> max chng: dpmx=   3.3346E-05 dtmpmx=   5.1239E-07

== TH FLOW =====================================================================
 Step    518 Time=  2.53000E+01 Dt=  5.00000E-02 [y] snes_conv_reason:   11
  newton =   1 [     526] linear =   125 [     67670] cuts =  0 [   0]
  --> max chng: dpmx=   3.2878E-05 dtmpmx=   5.0866E-07

== TH FLOW =====================================================================
 Step    519 Time=  2.53500E+01 Dt=  5.00000E-02 [y] snes_conv_reason:   11
  newton =   1 [     527] linear =   119 [     67789] cuts =  0 [   0]
  --> max chng: dpmx=   3.2407E-05 dtmpmx=   5.0478E-07

== TH FLOW =====================================================================
 Step    520 Time=  2.54000E+01 Dt=  5.00000E-02 [y] snes_conv_reason:   11
  newton =   1 [     528] linear =   125 [     67914] cuts =  0 [   0]
  --> max chng: dpmx=   3.1932E-05 dtmpmx=   5.0079E-07

== TH FLOW =====================================================================
 Step    521 Time=  2.54500E+01 Dt=  5.00000E-02 [y] snes_conv_reason:   11
  newton =   1 [     529] linear =   124 [     68038] cuts =  0 [   0]
  --> max chng: dpmx=   3.1462E-05 dtmpmx=   4.9659E-07

== TH FLOW =====================================================================
 Step    522 Time=  2.55000E+01 Dt=  5.00000E-02 [y] snes_conv_reason:   11
  newton =   1 [     530] linear =   118 [     68156] cuts =  0 [   0]
  --> max chng: dpmx=   3.0989E-05 dtmpmx=   4.9231E-07

== TH FLOW =====================================================================
 Step    523 Time=  2.55500E+01 Dt=  5.00000E-02 [y] snes_conv_reason:   11
  newton =   1 [     531] linear =   117 [     68273] cuts =  0 [   0]
  --> max chng: dpmx=   3.0519E-05 dtmpmx=   4.8793E-07

== TH FLOW =====================================================================
 Step    524 Time=  2.56000E+01 Dt=  5.00000E-02 [y] snes_conv_reason:   11
  newton =   1 [     532] linear =   124 [     68397] cuts =  0 [   0]
  --> max chng: dpmx=   3.0047E-05 dtmpmx=   4.8346E-07

== TH FLOW =====================================================================
 Step    525 Time=  2.56500E+01 Dt=  5.00000E-02 [y] snes_conv_reason:   11
  newton =   1 [     533] linear =   128 [     68525] cuts =  0 [   0]
  --> max chng: dpmx=   2.9574E-05 dtmpmx=   4.7893E-07

== TH FLOW =====================================================================
 Step    526 Time=  2.57000E+01 Dt=  5.00000E-02 [y] snes_conv_reason:   11
  newton =   1 [     534] linear =   124 [     68649] cuts =  0 [   0]
  --> max chng: dpmx=   2.9108E-05 dtmpmx=   4.7431E-07

== TH FLOW =====================================================================
 Step    527 Time=  2.57500E+01 Dt=  5.00000E-02 [y] snes_conv_reason:   11
  newton =   1 [     535] linear =   123 [     68772] cuts =  0 [   0]
  --> max chng: dpmx=   2.8642E-05 dtmpmx=   4.6963E-07

== TH FLOW =====================================================================
 Step    528 Time=  2.58000E+01 Dt=  5.00000E-02 [y] snes_conv_reason:   11
  newton =   1 [     536] linear =   123 [     68895] cuts =  0 [   0]
  --> max chng: dpmx=   2.8170E-05 dtmpmx=   4.6487E-07

== TH FLOW =====================================================================
 Step    529 Time=  2.58500E+01 Dt=  5.00000E-02 [y] snes_conv_reason:   11
  newton =   1 [     537] linear =   124 [     69019] cuts =  0 [   0]
  --> max chng: dpmx=   2.7703E-05 dtmpmx=   4.6009E-07

== TH FLOW =====================================================================
 Step    530 Time=  2.59000E+01 Dt=  5.00000E-02 [y] snes_conv_reason:   11
  newton =   1 [     538] linear =   123 [     69142] cuts =  0 [   0]
  --> max chng: dpmx=   2.7238E-05 dtmpmx=   4.5525E-07

== TH FLOW =====================================================================
 Step    531 Time=  2.59500E+01 Dt=  5.00000E-02 [y] snes_conv_reason:   11
  newton =   1 [     539] linear =   123 [     69265] cuts =  0 [   0]
  --> max chng: dpmx=   2.6776E-05 dtmpmx=   4.5038E-07

== TH FLOW =====================================================================
 Step    532 Time=  2.60000E+01 Dt=  5.00000E-02 [y] snes_conv_reason:   11
  newton =   1 [     540] linear =   128 [     69393] cuts =  0 [   0]
  --> max chng: dpmx=   2.6317E-05 dtmpmx=   4.4545E-07

== TH FLOW =====================================================================
 Step    533 Time=  2.60500E+01 Dt=  5.00000E-02 [y] snes_conv_reason:   11
  newton =   1 [     541] linear =   127 [     69520] cuts =  0 [   0]
  --> max chng: dpmx=   2.5854E-05 dtmpmx=   4.4050E-07

== TH FLOW =====================================================================
 Step    534 Time=  2.61000E+01 Dt=  5.00000E-02 [y] snes_conv_reason:   11
  newton =   1 [     542] linear =   127 [     69647] cuts =  0 [   0]
  --> max chng: dpmx=   2.5395E-05 dtmpmx=   4.3552E-07

== TH FLOW =====================================================================
 Step    535 Time=  2.61500E+01 Dt=  5.00000E-02 [y] snes_conv_reason:   11
  newton =   1 [     543] linear =   127 [     69774] cuts =  0 [   0]
  --> max chng: dpmx=   2.4943E-05 dtmpmx=   4.3050E-07

== TH FLOW =====================================================================
 Step    536 Time=  2.62000E+01 Dt=  5.00000E-02 [y] snes_conv_reason:   11
  newton =   1 [     544] linear =   128 [     69902] cuts =  0 [   0]
  --> max chng: dpmx=   2.4488E-05 dtmpmx=   4.2545E-07

== TH FLOW =====================================================================
 Step    537 Time=  2.62500E+01 Dt=  5.00000E-02 [y] snes_conv_reason:   11
  newton =   1 [     545] linear =   127 [     70029] cuts =  0 [   0]
  --> max chng: dpmx=   2.4038E-05 dtmpmx=   4.2040E-07

== TH FLOW =====================================================================
 Step    538 Time=  2.63000E+01 Dt=  5.00000E-02 [y] snes_conv_reason:   11
  newton =   1 [     546] linear =   120 [     70149] cuts =  0 [   0]
  --> max chng: dpmx=   2.3589E-05 dtmpmx=   4.1532E-07

== TH FLOW =====================================================================
 Step    539 Time=  2.63500E+01 Dt=  5.00000E-02 [y] snes_conv_reason:   11
  newton =   1 [     547] linear =   128 [     70277] cuts =  0 [   0]
  --> max chng: dpmx=   2.3139E-05 dtmpmx=   4.1020E-07

== TH FLOW =====================================================================
 Step    540 Time=  2.64000E+01 Dt=  5.00000E-02 [y] snes_conv_reason:   11
  newton =   1 [     548] linear =   126 [     70403] cuts =  0 [   0]
  --> max chng: dpmx=   2.2701E-05 dtmpmx=   4.0507E-07

== TH FLOW =====================================================================
 Step    541 Time=  2.64500E+01 Dt=  5.00000E-02 [y] snes_conv_reason:   11
  newton =   1 [     549] linear =   126 [     70529] cuts =  0 [   0]
  --> max chng: dpmx=   2.2257E-05 dtmpmx=   3.9995E-07

== TH FLOW =====================================================================
 Step    542 Time=  2.65000E+01 Dt=  5.00000E-02 [y] snes_conv_reason:   11
  newton =   1 [     550] linear =   126 [     70655] cuts =  0 [   0]
  --> max chng: dpmx=   2.1817E-05 dtmpmx=   3.9481E-07

== TH FLOW =====================================================================
 Step    543 Time=  2.65500E+01 Dt=  5.00000E-02 [y] snes_conv_reason:   11
  newton =   1 [     551] linear =   131 [     70786] cuts =  0 [   0]
  --> max chng: dpmx=   2.1388E-05 dtmpmx=   3.8962E-07

== TH FLOW =====================================================================
 Step    544 Time=  2.66000E+01 Dt=  5.00000E-02 [y] snes_conv_reason:   11
  newton =   1 [     552] linear =   126 [     70912] cuts =  0 [   0]
  --> max chng: dpmx=   2.0952E-05 dtmpmx=   3.8444E-07

== TH FLOW =====================================================================
 Step    545 Time=  2.66500E+01 Dt=  5.00000E-02 [y] snes_conv_reason:   11
  newton =   1 [     553] linear =   126 [     71038] cuts =  0 [   0]
  --> max chng: dpmx=   2.0524E-05 dtmpmx=   3.7926E-07

== TH FLOW =====================================================================
 Step    546 Time=  2.67000E+01 Dt=  5.00000E-02 [y] snes_conv_reason:   11
  newton =   1 [     554] linear =   126 [     71164] cuts =  0 [   0]
  --> max chng: dpmx=   2.0099E-05 dtmpmx=   3.7405E-07

== TH FLOW =====================================================================
 Step    547 Time=  2.67500E+01 Dt=  5.00000E-02 [y] snes_conv_reason:   11
  newton =   1 [     555] linear =   126 [     71290] cuts =  0 [   0]
  --> max chng: dpmx=   1.9677E-05 dtmpmx=   3.6890E-07

== TH FLOW =====================================================================
 Step    548 Time=  2.68000E+01 Dt=  5.00000E-02 [y] snes_conv_reason:   11
  newton =   1 [     556] linear =   125 [     71415] cuts =  0 [   0]
  --> max chng: dpmx=   1.9261E-05 dtmpmx=   3.6366E-07

== TH FLOW =====================================================================
 Step    549 Time=  2.68500E+01 Dt=  5.00000E-02 [y] snes_conv_reason:   11
  newton =   1 [     557] linear =   126 [     71541] cuts =  0 [   0]
  --> max chng: dpmx=   1.8839E-05 dtmpmx=   3.5838E-07

== TH FLOW =====================================================================
 Step    550 Time=  2.69000E+01 Dt=  5.00000E-02 [y] snes_conv_reason:   11
  newton =   1 [     558] linear =   125 [     71666] cuts =  0 [   0]
  --> max chng: dpmx=   1.8433E-05 dtmpmx=   3.5320E-07

== TH FLOW =====================================================================
 Step    551 Time=  2.69500E+01 Dt=  5.00000E-02 [y] snes_conv_reason:   11
  newton =   1 [     559] linear =   131 [     71797] cuts =  0 [   0]
  --> max chng: dpmx=   1.8024E-05 dtmpmx=   3.4798E-07

== TH FLOW =====================================================================
 Step    552 Time=  2.70000E+01 Dt=  5.00000E-02 [y] snes_conv_reason:   11
  newton =   1 [     560] linear =   130 [     71927] cuts =  0 [   0]
  --> max chng: dpmx=   1.7619E-05 dtmpmx=   3.4271E-07

== TH FLOW =====================================================================
 Step    553 Time=  2.70500E+01 Dt=  5.00000E-02 [y] snes_conv_reason:   11
  newton =   1 [     561] linear =   130 [     72057] cuts =  0 [   0]
  --> max chng: dpmx=   1.7217E-05 dtmpmx=   3.3751E-07

== TH FLOW =====================================================================
 Step    554 Time=  2.71000E+01 Dt=  5.00000E-02 [y] snes_conv_reason:   11
  newton =   1 [     562] linear =   130 [     72187] cuts =  0 [   0]
  --> max chng: dpmx=   1.6824E-05 dtmpmx=   3.3226E-07

== TH FLOW =====================================================================
 Step    555 Time=  2.71500E+01 Dt=  5.00000E-02 [y] snes_conv_reason:   11
  newton =   1 [     563] linear =   129 [     72316] cuts =  0 [   0]
  --> max chng: dpmx=   1.6430E-05 dtmpmx=   3.2701E-07

== TH FLOW =====================================================================
 Step    556 Time=  2.72000E+01 Dt=  5.00000E-02 [y] snes_conv_reason:   11
  newton =   1 [     564] linear =   129 [     72445] cuts =  0 [   0]
  --> max chng: dpmx=   1.6042E-05 dtmpmx=   3.2176E-07

== TH FLOW =====================================================================
 Step    557 Time=  2.72500E+01 Dt=  5.00000E-02 [y] snes_conv_reason:   11
  newton =   1 [     565] linear =   129 [     72574] cuts =  0 [   0]
  --> max chng: dpmx=   1.5659E-05 dtmpmx=   3.1657E-07

== TH FLOW =====================================================================
 Step    558 Time=  2.73000E+01 Dt=  5.00000E-02 [y] snes_conv_reason:   11
  newton =   1 [     566] linear =   129 [     72703] cuts =  0 [   0]
  --> max chng: dpmx=   1.5278E-05 dtmpmx=   3.1132E-07

== TH FLOW =====================================================================
 Step    559 Time=  2.73500E+01 Dt=  5.00000E-02 [y] snes_conv_reason:   11
  newton =   1 [     567] linear =   130 [     72833] cuts =  0 [   0]
  --> max chng: dpmx=   1.4903E-05 dtmpmx=   3.0607E-07

== TH FLOW =====================================================================
 Step    560 Time=  2.74000E+01 Dt=  5.00000E-02 [y] snes_conv_reason:   11
  newton =   1 [     568] linear =   129 [     72962] cuts =  0 [   0]
  --> max chng: dpmx=   1.4532E-05 dtmpmx=   3.0087E-07

== TH FLOW =====================================================================
 Step    561 Time=  2.74500E+01 Dt=  5.00000E-02 [y] snes_conv_reason:   11
  newton =   1 [     569] linear =   128 [     73090] cuts =  0 [   0]
  --> max chng: dpmx=   1.4167E-05 dtmpmx=   2.9562E-07

== TH FLOW =====================================================================
 Step    562 Time=  2.75000E+01 Dt=  5.00000E-02 [y] snes_conv_reason:   11
  newton =   1 [     570] linear =   128 [     73218] cuts =  0 [   0]
  --> max chng: dpmx=   1.3802E-05 dtmpmx=   2.9042E-07

 Wall Clock Time:  1.1507E+02 [sec]   1.9178E+00 [min]   3.1964E-02 [hr]
