
===================
  PFLOTRAN v3.0.1
===================

 Extent of Gridded Domain
  X: 2.5000000000000000 - 97.500000000000000
  Y: 2.5000000000000000 - 1277.5000000000000
  Z: 2.5000000000000000 - 2.5000000000000000


=+=+=+=+=+=+=+=+=+=+=+=+=+=+=+=+=+=+=+=+=+=+=+=+=+=+=+=+=+=+=+=+=+=+=+=+=+=+=+=+

  Initial Condition

--------------------------------------------------------------------------------
          Flow Condition:   initial
                  Region:   all
--------------------------------------------------------------------------------

  Flow Condition: initial
    Synchronize time with update: no
    Time units: yr
    Length units: m
      Datum:
        Dataset: Unnamed Ascii Dataset
          Type: dataset_ascii_type
          Transient: no
          Array Rank:  3

    Sub Condition: pressure
      Type: hydrostatic
      Gradient:
        Dataset: Unnamed Ascii Dataset
          Type: dataset_ascii_type
          Transient: no
          Array Rank:  3
      Data:
        Dataset: Unnamed Ascii Dataset
          Type: dataset_ascii_type
          Transient: no
          Array Rank:  1

    Sub Condition: temperature
      Type: dirichlet
      Gradient:
      Data:
        Dataset: Unnamed Ascii Dataset
          Type: dataset_ascii_type
          Transient: no
          Array Rank:  1

--------------------------------------------------------------------------------

=+=+=+=+=+=+=+=+=+=+=+=+=+=+=+=+=+=+=+=+=+=+=+=+=+=+=+=+=+=+=+=+=+=+=+=+=+=+=+=+

  Boundary Condition

--------------------------------------------------------------------------------
          Flow Condition:   initial
                  Region:   north
--------------------------------------------------------------------------------

  Flow Condition: initial
    Synchronize time with update: no
    Time units: yr
    Length units: m
      Datum:
        Dataset: Unnamed Ascii Dataset
          Type: dataset_ascii_type
          Transient: no
          Array Rank:  3

    Sub Condition: pressure
      Type: hydrostatic
      Gradient:
        Dataset: Unnamed Ascii Dataset
          Type: dataset_ascii_type
          Transient: no
          Array Rank:  3
      Data:
        Dataset: Unnamed Ascii Dataset
          Type: dataset_ascii_type
          Transient: no
          Array Rank:  1

    Sub Condition: temperature
      Type: dirichlet
      Gradient:
      Data:
        Dataset: Unnamed Ascii Dataset
          Type: dataset_ascii_type
          Transient: no
          Array Rank:  1

--------------------------------------------------------------------------------

=+=+=+=+=+=+=+=+=+=+=+=+=+=+=+=+=+=+=+=+=+=+=+=+=+=+=+=+=+=+=+=+=+=+=+=+=+=+=+=+

  Boundary Condition

--------------------------------------------------------------------------------
          Flow Condition:   initial
                  Region:   south
--------------------------------------------------------------------------------

  Flow Condition: initial
    Synchronize time with update: no
    Time units: yr
    Length units: m
      Datum:
        Dataset: Unnamed Ascii Dataset
          Type: dataset_ascii_type
          Transient: no
          Array Rank:  3

    Sub Condition: pressure
      Type: hydrostatic
      Gradient:
        Dataset: Unnamed Ascii Dataset
          Type: dataset_ascii_type
          Transient: no
          Array Rank:  3
      Data:
        Dataset: Unnamed Ascii Dataset
          Type: dataset_ascii_type
          Transient: no
          Array Rank:  1

    Sub Condition: temperature
      Type: dirichlet
      Gradient:
      Data:
        Dataset: Unnamed Ascii Dataset
          Type: dataset_ascii_type
          Transient: no
          Array Rank:  1

--------------------------------------------------------------------------------

=+=+=+=+=+=+=+=+=+=+=+=+=+=+=+=+=+=+=+=+=+=+=+=+=+=+=+=+=+=+=+=+=+=+=+=+=+=+=+=+

  Source Sink

--------------------------------------------------------------------------------
          Flow Condition:   injection
                  Region:   heatpump_inject0
--------------------------------------------------------------------------------

  Flow Condition: injection
    Synchronize time with update: no
    Time units: yr
    Length units: m
      Datum:

    Sub Condition: rate
      Type: scaled volumetric rate
      Gradient:
      Data:
        Dataset: Unnamed Ascii Dataset
          Type: dataset_ascii_type
          Is transient?: yes
          Number of times:      3
          Is cyclic?: no
          Buffer:
            Rank:  2
            Dims:    1   3
            Buffer Slice Size:   0
          Array Rank:  1

    Sub Condition: temperature
      Type: dirichlet
      Gradient:
      Data:
        Dataset: Unnamed Ascii Dataset
          Type: dataset_ascii_type
          Transient: no
          Array Rank:  1

--------------------------------------------------------------------------------

 Requested processors =    16

FLOW Time Stepper
                 acceleration: on
       acceleration threshold: 5
       number of ramp entries: 5
                ramp entry #1: 2.0000
                ramp entry #2: 2.0000
                ramp entry #3: 2.0000
                ramp entry #4: 2.0000
                ramp entry #5: 2.0000
                ramp entry #6: 1.8000
                ramp entry #7: 1.6000
                ramp entry #8: 1.4000
                ramp entry #9: 1.2000
               ramp entry #10: 1.0000
               ramp entry #11: 1.0000
               ramp entry #12: 1.0000
               ramp entry #13: 1.0000
      maximum number of steps: 999999
constant time steps threshold: 5
       maximum number of cuts: 16
             reduction factor: 5.000000E-01
        maximum growth factor: 2.000000E+00

FLOW Newton Solver
                         atol: 1.000000E-50
                         rtol: 1.000000E-03
                         stol: 1.000000E-08
                         dtol: 1.000000E+04
                      maxnorm: 1.000000E+20
                    inftolres: -9.990000E+02
                    inftolupd: 1.000000E+00
                 inftolrelupd: -9.990000E+02
                 inftolsclres: -9.990000E+02
                     max iter: 50
                     min iter: 1
                         maxf: 10000
                  matrix type: baij
         precond. matrix type: baij
               inexact newton: off
            print convergence: on
   print detailed convergence: off
          check infinity norm: on

FLOW Linear Solver
                       solver: bcgs
               preconditioner: bjacobi
                         atol: 1.000000E-50
                         rtol: 1.000000E-05
                         dtol: 1.000000E+04
            maximum iteration: 10000

== TH FLOW =====================================================================
 Step      1 Time=  1.00000E-05 Dt=  1.00000E-05 [y] snes_conv_reason:   11
  newton =   1 [       1] linear =    65 [        65] cuts =  0 [   0]
  --> max chng: dpmx=   4.5388E-02 dtmpmx=   4.3445E-09

== TH FLOW =====================================================================
 Step      2 Time=  3.00000E-05 Dt=  2.00000E-05 [y] snes_conv_reason:   11
  newton =   1 [       2] linear =    65 [       130] cuts =  0 [   0]
  --> max chng: dpmx=   1.4790E-02 dtmpmx=   8.5938E-09

== TH FLOW =====================================================================
 Step      3 Time=  7.00000E-05 Dt=  4.00000E-05 [y] snes_conv_reason:   11
  newton =   1 [       3] linear =    92 [       222] cuts =  0 [   0]
  --> max chng: dpmx=   2.5365E-03 dtmpmx=   1.7154E-08

== TH FLOW =====================================================================
 Step      4 Time=  1.50000E-04 Dt=  8.00000E-05 [y] snes_conv_reason:   11
  newton =   1 [       4] linear =   119 [       341] cuts =  0 [   0]
  --> max chng: dpmx=   2.2613E-04 dtmpmx=   3.4302E-08

== TH FLOW =====================================================================
 Step      5 Time=  3.10000E-04 Dt=  1.60000E-04 [y] snes_conv_reason:   11
  newton =   1 [       5] linear =   119 [       460] cuts =  0 [   0]
  --> max chng: dpmx=   1.0208E-05 dtmpmx=   6.8604E-08

== TH FLOW =====================================================================
 Step      6 Time=  6.30000E-04 Dt=  3.20000E-04 [y] snes_conv_reason:   11
  newton =   1 [       6] linear =   119 [       579] cuts =  0 [   0]
  --> max chng: dpmx=   3.9185E-07 dtmpmx=   1.3721E-07

== TH FLOW =====================================================================
 Step      7 Time=  1.27000E-03 Dt=  6.40000E-04 [y] snes_conv_reason:   11
  newton =   1 [       7] linear =   119 [       698] cuts =  0 [   0]
  --> max chng: dpmx=   8.0280E-07 dtmpmx=   2.7442E-07

== TH FLOW =====================================================================
 Step      8 Time=  2.55000E-03 Dt=  1.28000E-03 [y] snes_conv_reason:   11
  newton =   1 [       8] linear =   122 [       820] cuts =  0 [   0]
  --> max chng: dpmx=   1.6404E-06 dtmpmx=   5.4883E-07

== TH FLOW =====================================================================
 Step      9 Time=  5.11000E-03 Dt=  2.56000E-03 [y] snes_conv_reason:   11
  newton =   1 [       9] linear =   106 [       926] cuts =  0 [   0]
  --> max chng: dpmx=   3.4173E-06 dtmpmx=   1.0977E-06

== TH FLOW =====================================================================
 Step     10 Time=  1.02300E-02 Dt=  5.12000E-03 [y] snes_conv_reason:   11
  newton =   1 [      10] linear =   122 [      1048] cuts =  0 [   0]
  --> max chng: dpmx=   7.3855E-06 dtmpmx=   2.1953E-06

== TH FLOW =====================================================================
 Step     11 Time=  2.04700E-02 Dt=  1.02400E-02 [y] snes_conv_reason:   11
  newton =   1 [      11] linear =   123 [      1171] cuts =  0 [   0]
  --> max chng: dpmx=   1.6970E-05 dtmpmx=   4.3907E-06

== TH FLOW =====================================================================
 Step     12 Time=  4.09500E-02 Dt=  2.04800E-02 [y] snes_conv_reason:   11
  newton =   1 [      12] linear =   120 [      1291] cuts =  0 [   0]
  --> max chng: dpmx=   4.2733E-05 dtmpmx=   8.7814E-06

== TH FLOW =====================================================================
 Step     13 Time=  8.19100E-02 Dt=  4.09600E-02 [y] snes_conv_reason:   11
  newton =   1 [      13] linear =   120 [      1411] cuts =  0 [   0]
  --> max chng: dpmx=   1.2001E-04 dtmpmx=   1.7563E-05

== TH FLOW =====================================================================
 Step     14 Time=  1.00000E-01 Dt=  1.80900E-02 [y] snes_conv_reason:   11
  newton =   1 [      14] linear =   122 [      1533] cuts =  0 [   0]
  --> max chng: dpmx=   5.9724E-05 dtmpmx=   7.7566E-06

== TH FLOW =====================================================================
 Step     15 Time=  1.50000E-01 Dt=  5.00000E-02 [y] snes_conv_reason:   11
  newton =   1 [      15] linear =   119 [      1652] cuts =  0 [   0]
  --> max chng: dpmx=   2.1594E-04 dtmpmx=   2.1439E-05

== TH FLOW =====================================================================
 Step     16 Time=  2.00000E-01 Dt=  5.00000E-02 [y] snes_conv_reason:   11
  newton =   1 [      16] linear =   124 [      1776] cuts =  0 [   0]
  --> max chng: dpmx=   2.6604E-04 dtmpmx=   2.1439E-05

== TH FLOW =====================================================================
 Step     17 Time=  2.50000E-01 Dt=  5.00000E-02 [y] snes_conv_reason:   11
  newton =   3 [      19] linear =   340 [      2116] cuts =  0 [   0]
  --> max chng: dpmx=   4.2675E+02 dtmpmx=   3.2507E+00

== TH FLOW =====================================================================
 Step     18 Time=  3.00000E-01 Dt=  5.00000E-02 [y] snes_conv_reason:   11
  newton =   2 [      21] linear =   235 [      2351] cuts =  0 [   0]
  --> max chng: dpmx=   3.3410E+00 dtmpmx=   1.2930E+00

== TH FLOW =====================================================================
 Step     19 Time=  3.50000E-01 Dt=  5.00000E-02 [y] snes_conv_reason:   11
  newton =   2 [      23] linear =   241 [      2592] cuts =  0 [   0]
  --> max chng: dpmx=   2.1850E+00 dtmpmx=   8.9070E-01

== TH FLOW =====================================================================
 Step     20 Time=  4.00000E-01 Dt=  5.00000E-02 [y] snes_conv_reason:   11
  newton =   2 [      25] linear =   237 [      2829] cuts =  0 [   0]
  --> max chng: dpmx=   2.0194E+00 dtmpmx=   7.1457E-01

== TH FLOW =====================================================================
 Step     21 Time=  4.50000E-01 Dt=  5.00000E-02 [y] snes_conv_reason:   11
  newton =   2 [      27] linear =   236 [      3065] cuts =  0 [   0]
  --> max chng: dpmx=   1.9206E+00 dtmpmx=   6.1202E-01

== TH FLOW =====================================================================
 Step     22 Time=  5.00000E-01 Dt=  5.00000E-02 [y] snes_conv_reason:   11
  newton =   2 [      29] linear =   232 [      3297] cuts =  0 [   0]
  --> max chng: dpmx=   1.8385E+00 dtmpmx=   5.4283E-01

== TH FLOW =====================================================================
 Step     23 Time=  5.50000E-01 Dt=  5.00000E-02 [y] snes_conv_reason:    3
  newton =   1 [      30] linear =   123 [      3420] cuts =  0 [   0]
  --> max chng: dpmx=   1.7827E+00 dtmpmx=   4.9230E-01

== TH FLOW =====================================================================
 Step     24 Time=  6.00000E-01 Dt=  5.00000E-02 [y] snes_conv_reason:    3
  newton =   1 [      31] linear =   121 [      3541] cuts =  0 [   0]
  --> max chng: dpmx=   1.7323E+00 dtmpmx=   4.5264E-01

== TH FLOW =====================================================================
 Step     25 Time=  6.50000E-01 Dt=  5.00000E-02 [y] snes_conv_reason:    3
  newton =   1 [      32] linear =   123 [      3664] cuts =  0 [   0]
  --> max chng: dpmx=   1.6906E+00 dtmpmx=   4.2056E-01

== TH FLOW =====================================================================
 Step     26 Time=  7.00000E-01 Dt=  5.00000E-02 [y] snes_conv_reason:    3
  newton =   1 [      33] linear =   122 [      3786] cuts =  0 [   0]
  --> max chng: dpmx=   1.6572E+00 dtmpmx=   3.9382E-01

== TH FLOW =====================================================================
 Step     27 Time=  7.50000E-01 Dt=  5.00000E-02 [y] snes_conv_reason:    3
  newton =   1 [      34] linear =   116 [      3902] cuts =  0 [   0]
  --> max chng: dpmx=   1.6267E+00 dtmpmx=   3.7106E-01

== TH FLOW =====================================================================
 Step     28 Time=  8.00000E-01 Dt=  5.00000E-02 [y] snes_conv_reason:    3
  newton =   1 [      35] linear =   124 [      4026] cuts =  0 [   0]
  --> max chng: dpmx=   1.5999E+00 dtmpmx=   3.5133E-01

== TH FLOW =====================================================================
 Step     29 Time=  8.50000E-01 Dt=  5.00000E-02 [y] snes_conv_reason:    3
  newton =   1 [      36] linear =   121 [      4147] cuts =  0 [   0]
  --> max chng: dpmx=   1.5767E+00 dtmpmx=   3.3401E-01

== TH FLOW =====================================================================
 Step     30 Time=  9.00000E-01 Dt=  5.00000E-02 [y] snes_conv_reason:    3
  newton =   1 [      37] linear =   123 [      4270] cuts =  0 [   0]
  --> max chng: dpmx=   1.5548E+00 dtmpmx=   3.1862E-01

== TH FLOW =====================================================================
 Step     31 Time=  9.50000E-01 Dt=  5.00000E-02 [y] snes_conv_reason:    3
  newton =   1 [      38] linear =   122 [      4392] cuts =  0 [   0]
  --> max chng: dpmx=   1.5336E+00 dtmpmx=   3.0482E-01

== TH FLOW =====================================================================
 Step     32 Time=  1.00000E+00 Dt=  5.00000E-02 [y] snes_conv_reason:    3
  newton =   1 [      39] linear =   123 [      4515] cuts =  0 [   0]
  --> max chng: dpmx=   1.5159E+00 dtmpmx=   2.9235E-01

== TH FLOW =====================================================================
 Step     33 Time=  1.05000E+00 Dt=  5.00000E-02 [y] snes_conv_reason:    3
  newton =   1 [      40] linear =   116 [      4631] cuts =  0 [   0]
  --> max chng: dpmx=   1.4988E+00 dtmpmx=   2.8100E-01

== TH FLOW =====================================================================
 Step     34 Time=  1.10000E+00 Dt=  5.00000E-02 [y] snes_conv_reason:    3
  newton =   1 [      41] linear =   123 [      4754] cuts =  0 [   0]
  --> max chng: dpmx=   1.4828E+00 dtmpmx=   2.7061E-01

== TH FLOW =====================================================================
 Step     35 Time=  1.15000E+00 Dt=  5.00000E-02 [y] snes_conv_reason:    3
  newton =   1 [      42] linear =   124 [      4878] cuts =  0 [   0]
  --> max chng: dpmx=   1.4663E+00 dtmpmx=   2.6106E-01

== TH FLOW =====================================================================
 Step     36 Time=  1.20000E+00 Dt=  5.00000E-02 [y] snes_conv_reason:    3
  newton =   1 [      43] linear =   119 [      4997] cuts =  0 [   0]
  --> max chng: dpmx=   1.4527E+00 dtmpmx=   2.5223E-01

== TH FLOW =====================================================================
 Step     37 Time=  1.25000E+00 Dt=  5.00000E-02 [y] snes_conv_reason:    3
  newton =   1 [      44] linear =   122 [      5119] cuts =  0 [   0]
  --> max chng: dpmx=   1.4388E+00 dtmpmx=   2.4424E-01

== TH FLOW =====================================================================
 Step     38 Time=  1.30000E+00 Dt=  5.00000E-02 [y] snes_conv_reason:    3
  newton =   1 [      45] linear =   123 [      5242] cuts =  0 [   0]
  --> max chng: dpmx=   1.4254E+00 dtmpmx=   2.3717E-01

== TH FLOW =====================================================================
 Step     39 Time=  1.35000E+00 Dt=  5.00000E-02 [y] snes_conv_reason:    3
  newton =   1 [      46] linear =   123 [      5365] cuts =  0 [   0]
  --> max chng: dpmx=   1.4122E+00 dtmpmx=   2.3052E-01

== TH FLOW =====================================================================
 Step     40 Time=  1.40000E+00 Dt=  5.00000E-02 [y] snes_conv_reason:    3
  newton =   1 [      47] linear =   119 [      5484] cuts =  0 [   0]
  --> max chng: dpmx=   1.4000E+00 dtmpmx=   2.2425E-01

== TH FLOW =====================================================================
 Step     41 Time=  1.45000E+00 Dt=  5.00000E-02 [y] snes_conv_reason:    3
  newton =   1 [      48] linear =   122 [      5606] cuts =  0 [   0]
  --> max chng: dpmx=   1.3882E+00 dtmpmx=   2.1833E-01

== TH FLOW =====================================================================
 Step     42 Time=  1.50000E+00 Dt=  5.00000E-02 [y] snes_conv_reason:    3
  newton =   1 [      49] linear =   121 [      5727] cuts =  0 [   0]
  --> max chng: dpmx=   1.3763E+00 dtmpmx=   2.1272E-01

== TH FLOW =====================================================================
 Step     43 Time=  1.55000E+00 Dt=  5.00000E-02 [y] snes_conv_reason:    3
  newton =   1 [      50] linear =   119 [      5846] cuts =  0 [   0]
  --> max chng: dpmx=   1.3656E+00 dtmpmx=   2.0740E-01

== TH FLOW =====================================================================
 Step     44 Time=  1.60000E+00 Dt=  5.00000E-02 [y] snes_conv_reason:    3
  newton =   1 [      51] linear =   123 [      5969] cuts =  0 [   0]
  --> max chng: dpmx=   1.3536E+00 dtmpmx=   2.0234E-01

== TH FLOW =====================================================================
 Step     45 Time=  1.65000E+00 Dt=  5.00000E-02 [y] snes_conv_reason:    3
  newton =   1 [      52] linear =   121 [      6090] cuts =  0 [   0]
  --> max chng: dpmx=   1.3431E+00 dtmpmx=   1.9753E-01

== TH FLOW =====================================================================
 Step     46 Time=  1.70000E+00 Dt=  5.00000E-02 [y] snes_conv_reason:    3
  newton =   1 [      53] linear =   120 [      6210] cuts =  0 [   0]
  --> max chng: dpmx=   1.3321E+00 dtmpmx=   1.9295E-01

== TH FLOW =====================================================================
 Step     47 Time=  1.75000E+00 Dt=  5.00000E-02 [y] snes_conv_reason:    3
  newton =   1 [      54] linear =   116 [      6326] cuts =  0 [   0]
  --> max chng: dpmx=   1.3220E+00 dtmpmx=   1.8857E-01

== TH FLOW =====================================================================
 Step     48 Time=  1.80000E+00 Dt=  5.00000E-02 [y] snes_conv_reason:    3
  newton =   1 [      55] linear =   120 [      6446] cuts =  0 [   0]
  --> max chng: dpmx=   1.3124E+00 dtmpmx=   1.8439E-01

== TH FLOW =====================================================================
 Step     49 Time=  1.85000E+00 Dt=  5.00000E-02 [y] snes_conv_reason:    3
  newton =   1 [      56] linear =   112 [      6558] cuts =  0 [   0]
  --> max chng: dpmx=   1.3021E+00 dtmpmx=   1.8039E-01

== TH FLOW =====================================================================
 Step     50 Time=  1.90000E+00 Dt=  5.00000E-02 [y] snes_conv_reason:    3
  newton =   1 [      57] linear =   118 [      6676] cuts =  0 [   0]
  --> max chng: dpmx=   1.2922E+00 dtmpmx=   1.7685E-01

== TH FLOW =====================================================================
 Step     51 Time=  1.95000E+00 Dt=  5.00000E-02 [y] snes_conv_reason:    3
  newton =   1 [      58] linear =   121 [      6797] cuts =  0 [   0]
  --> max chng: dpmx=   1.2817E+00 dtmpmx=   1.7344E-01

== TH FLOW =====================================================================
 Step     52 Time=  2.00000E+00 Dt=  5.00000E-02 [y] snes_conv_reason:    3
  newton =   1 [      59] linear =   121 [      6918] cuts =  0 [   0]
  --> max chng: dpmx=   1.2730E+00 dtmpmx=   1.7015E-01

== TH FLOW =====================================================================
 Step     53 Time=  2.05000E+00 Dt=  5.00000E-02 [y] snes_conv_reason:    3
  newton =   1 [      60] linear =   116 [      7034] cuts =  0 [   0]
  --> max chng: dpmx=   1.2632E+00 dtmpmx=   1.6697E-01

== TH FLOW =====================================================================
 Step     54 Time=  2.10000E+00 Dt=  5.00000E-02 [y] snes_conv_reason:    3
  newton =   1 [      61] linear =   120 [      7154] cuts =  0 [   0]
  --> max chng: dpmx=   1.2540E+00 dtmpmx=   1.6391E-01

== TH FLOW =====================================================================
 Step     55 Time=  2.15000E+00 Dt=  5.00000E-02 [y] snes_conv_reason:    3
  newton =   1 [      62] linear =   121 [      7275] cuts =  0 [   0]
  --> max chng: dpmx=   1.2443E+00 dtmpmx=   1.6094E-01

== TH FLOW =====================================================================
 Step     56 Time=  2.20000E+00 Dt=  5.00000E-02 [y] snes_conv_reason:    3
  newton =   1 [      63] linear =   123 [      7398] cuts =  0 [   0]
  --> max chng: dpmx=   1.2359E+00 dtmpmx=   1.5808E-01

== TH FLOW =====================================================================
 Step     57 Time=  2.25000E+00 Dt=  5.00000E-02 [y] snes_conv_reason:    3
  newton =   1 [      64] linear =   121 [      7519] cuts =  0 [   0]
  --> max chng: dpmx=   1.2264E+00 dtmpmx=   1.5531E-01

== TH FLOW =====================================================================
 Step     58 Time=  2.30000E+00 Dt=  5.00000E-02 [y] snes_conv_reason:    3
  newton =   1 [      65] linear =   121 [      7640] cuts =  0 [   0]
  --> max chng: dpmx=   1.2174E+00 dtmpmx=   1.5262E-01

== TH FLOW =====================================================================
 Step     59 Time=  2.35000E+00 Dt=  5.00000E-02 [y] snes_conv_reason:    3
  newton =   1 [      66] linear =   116 [      7756] cuts =  0 [   0]
  --> max chng: dpmx=   1.2084E+00 dtmpmx=   1.5002E-01

== TH FLOW =====================================================================
 Step     60 Time=  2.40000E+00 Dt=  5.00000E-02 [y] snes_conv_reason:    3
  newton =   1 [      67] linear =   111 [      7867] cuts =  0 [   0]
  --> max chng: dpmx=   1.1999E+00 dtmpmx=   1.4750E-01

== TH FLOW =====================================================================
 Step     61 Time=  2.45000E+00 Dt=  5.00000E-02 [y] snes_conv_reason:    3
  newton =   1 [      68] linear =   120 [      7987] cuts =  0 [   0]
  --> max chng: dpmx=   1.1911E+00 dtmpmx=   1.4507E-01

== TH FLOW =====================================================================
 Step     62 Time=  2.50000E+00 Dt=  5.00000E-02 [y] snes_conv_reason:    3
  newton =   1 [      69] linear =   121 [      8108] cuts =  0 [   0]
  --> max chng: dpmx=   1.1826E+00 dtmpmx=   1.4288E-01

== TH FLOW =====================================================================
 Step     63 Time=  2.55000E+00 Dt=  5.00000E-02 [y] snes_conv_reason:    3
  newton =   1 [      70] linear =   123 [      8231] cuts =  0 [   0]
  --> max chng: dpmx=   1.1741E+00 dtmpmx=   1.4074E-01

== TH FLOW =====================================================================
 Step     64 Time=  2.60000E+00 Dt=  5.00000E-02 [y] snes_conv_reason:    3
  newton =   1 [      71] linear =   117 [      8348] cuts =  0 [   0]
  --> max chng: dpmx=   1.1653E+00 dtmpmx=   1.3866E-01

== TH FLOW =====================================================================
 Step     65 Time=  2.65000E+00 Dt=  5.00000E-02 [y] snes_conv_reason:    3
  newton =   1 [      72] linear =   118 [      8466] cuts =  0 [   0]
  --> max chng: dpmx=   1.1571E+00 dtmpmx=   1.3664E-01

== TH FLOW =====================================================================
 Step     66 Time=  2.70000E+00 Dt=  5.00000E-02 [y] snes_conv_reason:    3
  newton =   1 [      73] linear =   118 [      8584] cuts =  0 [   0]
  --> max chng: dpmx=   1.1485E+00 dtmpmx=   1.3466E-01

== TH FLOW =====================================================================
 Step     67 Time=  2.75000E+00 Dt=  5.00000E-02 [y] snes_conv_reason:    3
  newton =   1 [      74] linear =   113 [      8697] cuts =  0 [   0]
  --> max chng: dpmx=   1.1396E+00 dtmpmx=   1.3273E-01

== TH FLOW =====================================================================
 Step     68 Time=  2.80000E+00 Dt=  5.00000E-02 [y] snes_conv_reason:    3
  newton =   1 [      75] linear =   113 [      8810] cuts =  0 [   0]
  --> max chng: dpmx=   1.1315E+00 dtmpmx=   1.3085E-01

== TH FLOW =====================================================================
 Step     69 Time=  2.85000E+00 Dt=  5.00000E-02 [y] snes_conv_reason:    3
  newton =   1 [      76] linear =   120 [      8930] cuts =  0 [   0]
  --> max chng: dpmx=   1.1230E+00 dtmpmx=   1.2902E-01

== TH FLOW =====================================================================
 Step     70 Time=  2.90000E+00 Dt=  5.00000E-02 [y] snes_conv_reason:    3
  newton =   1 [      77] linear =   113 [      9043] cuts =  0 [   0]
  --> max chng: dpmx=   1.1156E+00 dtmpmx=   1.2723E-01

== TH FLOW =====================================================================
 Step     71 Time=  2.95000E+00 Dt=  5.00000E-02 [y] snes_conv_reason:    3
  newton =   1 [      78] linear =   117 [      9160] cuts =  0 [   0]
  --> max chng: dpmx=   1.1071E+00 dtmpmx=   1.2548E-01

== TH FLOW =====================================================================
 Step     72 Time=  3.00000E+00 Dt=  5.00000E-02 [y] snes_conv_reason:    3
  newton =   1 [      79] linear =   118 [      9278] cuts =  0 [   0]
  --> max chng: dpmx=   1.0987E+00 dtmpmx=   1.2377E-01

== TH FLOW =====================================================================
 Step     73 Time=  3.05000E+00 Dt=  5.00000E-02 [y] snes_conv_reason:    3
  newton =   1 [      80] linear =   120 [      9398] cuts =  0 [   0]
  --> max chng: dpmx=   1.0908E+00 dtmpmx=   1.2213E-01

== TH FLOW =====================================================================
 Step     74 Time=  3.10000E+00 Dt=  5.00000E-02 [y] snes_conv_reason:    3
  newton =   1 [      81] linear =   119 [      9517] cuts =  0 [   0]
  --> max chng: dpmx=   1.0828E+00 dtmpmx=   1.2062E-01

== TH FLOW =====================================================================
 Step     75 Time=  3.15000E+00 Dt=  5.00000E-02 [y] snes_conv_reason:    3
  newton =   1 [      82] linear =   118 [      9635] cuts =  0 [   0]
  --> max chng: dpmx=   1.0741E+00 dtmpmx=   1.1914E-01

== TH FLOW =====================================================================
 Step     76 Time=  3.20000E+00 Dt=  5.00000E-02 [y] snes_conv_reason:    3
  newton =   1 [      83] linear =   118 [      9753] cuts =  0 [   0]
  --> max chng: dpmx=   1.0667E+00 dtmpmx=   1.1769E-01

== TH FLOW =====================================================================
 Step     77 Time=  3.25000E+00 Dt=  5.00000E-02 [y] snes_conv_reason:    3
  newton =   1 [      84] linear =   120 [      9873] cuts =  0 [   0]
  --> max chng: dpmx=   1.0587E+00 dtmpmx=   1.1627E-01

== TH FLOW =====================================================================
 Step     78 Time=  3.30000E+00 Dt=  5.00000E-02 [y] snes_conv_reason:    3
  newton =   1 [      85] linear =   115 [      9988] cuts =  0 [   0]
  --> max chng: dpmx=   1.0512E+00 dtmpmx=   1.1487E-01

== TH FLOW =====================================================================
 Step     79 Time=  3.35000E+00 Dt=  5.00000E-02 [y] snes_conv_reason:    3
  newton =   1 [      86] linear =   120 [     10108] cuts =  0 [   0]
  --> max chng: dpmx=   1.0423E+00 dtmpmx=   1.1351E-01

== TH FLOW =====================================================================
 Step     80 Time=  3.40000E+00 Dt=  5.00000E-02 [y] snes_conv_reason:    3
  newton =   1 [      87] linear =   119 [     10227] cuts =  0 [   0]
  --> max chng: dpmx=   1.0348E+00 dtmpmx=   1.1217E-01

== TH FLOW =====================================================================
 Step     81 Time=  3.45000E+00 Dt=  5.00000E-02 [y] snes_conv_reason:    3
  newton =   1 [      88] linear =   110 [     10337] cuts =  0 [   0]
  --> max chng: dpmx=   1.0267E+00 dtmpmx=   1.1085E-01

== TH FLOW =====================================================================
 Step     82 Time=  3.50000E+00 Dt=  5.00000E-02 [y] snes_conv_reason:    3
  newton =   1 [      89] linear =   118 [     10455] cuts =  0 [   0]
  --> max chng: dpmx=   1.0195E+00 dtmpmx=   1.0956E-01

== TH FLOW =====================================================================
 Step     83 Time=  3.55000E+00 Dt=  5.00000E-02 [y] snes_conv_reason:    3
  newton =   1 [      90] linear =   116 [     10571] cuts =  0 [   0]
  --> max chng: dpmx=   1.0107E+00 dtmpmx=   1.0829E-01

== TH FLOW =====================================================================
 Step     84 Time=  3.60000E+00 Dt=  5.00000E-02 [y] snes_conv_reason:    3
  newton =   1 [      91] linear =   115 [     10686] cuts =  0 [   0]
  --> max chng: dpmx=   1.0039E+00 dtmpmx=   1.0705E-01

== TH FLOW =====================================================================
 Step     85 Time=  3.65000E+00 Dt=  5.00000E-02 [y] snes_conv_reason:   11
  newton =   1 [      92] linear =   123 [     10809] cuts =  0 [   0]
  --> max chng: dpmx=   9.9577E-01 dtmpmx=   1.0586E-01

== TH FLOW =====================================================================
 Step     86 Time=  3.70000E+00 Dt=  5.00000E-02 [y] snes_conv_reason:   11
  newton =   1 [      93] linear =   115 [     10924] cuts =  0 [   0]
  --> max chng: dpmx=   9.8822E-01 dtmpmx=   1.0475E-01

== TH FLOW =====================================================================
 Step     87 Time=  3.75000E+00 Dt=  5.00000E-02 [y] snes_conv_reason:   11
  newton =   1 [      94] linear =   116 [     11040] cuts =  0 [   0]
  --> max chng: dpmx=   9.8052E-01 dtmpmx=   1.0366E-01

== TH FLOW =====================================================================
 Step     88 Time=  3.80000E+00 Dt=  5.00000E-02 [y] snes_conv_reason:   11
  newton =   1 [      95] linear =   119 [     11159] cuts =  0 [   0]
  --> max chng: dpmx=   9.7232E-01 dtmpmx=   1.0258E-01

== TH FLOW =====================================================================
 Step     89 Time=  3.85000E+00 Dt=  5.00000E-02 [y] snes_conv_reason:   11
  newton =   1 [      96] linear =   118 [     11277] cuts =  0 [   0]
  --> max chng: dpmx=   9.6509E-01 dtmpmx=   1.0152E-01

== TH FLOW =====================================================================
 Step     90 Time=  3.90000E+00 Dt=  5.00000E-02 [y] snes_conv_reason:   11
  newton =   1 [      97] linear =   117 [     11394] cuts =  0 [   0]
  --> max chng: dpmx=   9.5718E-01 dtmpmx=   1.0048E-01

== TH FLOW =====================================================================
 Step     91 Time=  3.95000E+00 Dt=  5.00000E-02 [y] snes_conv_reason:   11
  newton =   1 [      98] linear =   118 [     11512] cuts =  0 [   0]
  --> max chng: dpmx=   9.4949E-01 dtmpmx=   9.9454E-02

== TH FLOW =====================================================================
 Step     92 Time=  4.00000E+00 Dt=  5.00000E-02 [y] snes_conv_reason:   11
  newton =   1 [      99] linear =   122 [     11634] cuts =  0 [   0]
  --> max chng: dpmx=   9.4201E-01 dtmpmx=   9.8443E-02

== TH FLOW =====================================================================
 Step     93 Time=  4.05000E+00 Dt=  5.00000E-02 [y] snes_conv_reason:   11
  newton =   1 [     100] linear =   115 [     11749] cuts =  0 [   0]
  --> max chng: dpmx=   9.3430E-01 dtmpmx=   9.7448E-02

== TH FLOW =====================================================================
 Step     94 Time=  4.10000E+00 Dt=  5.00000E-02 [y] snes_conv_reason:   11
  newton =   1 [     101] linear =   118 [     11867] cuts =  0 [   0]
  --> max chng: dpmx=   9.2681E-01 dtmpmx=   9.6468E-02

== TH FLOW =====================================================================
 Step     95 Time=  4.15000E+00 Dt=  5.00000E-02 [y] snes_conv_reason:   11
  newton =   1 [     102] linear =   123 [     11990] cuts =  0 [   0]
  --> max chng: dpmx=   9.1933E-01 dtmpmx=   9.5503E-02

== TH FLOW =====================================================================
 Step     96 Time=  4.20000E+00 Dt=  5.00000E-02 [y] snes_conv_reason:   11
  newton =   1 [     103] linear =   117 [     12107] cuts =  0 [   0]
  --> max chng: dpmx=   9.1170E-01 dtmpmx=   9.4552E-02

== TH FLOW =====================================================================
 Step     97 Time=  4.25000E+00 Dt=  5.00000E-02 [y] snes_conv_reason:   11
  newton =   1 [     104] linear =   120 [     12227] cuts =  0 [   0]
  --> max chng: dpmx=   9.0387E-01 dtmpmx=   9.3653E-02

== TH FLOW =====================================================================
 Step     98 Time=  4.30000E+00 Dt=  5.00000E-02 [y] snes_conv_reason:   11
  newton =   1 [     105] linear =   124 [     12351] cuts =  0 [   0]
  --> max chng: dpmx=   8.9648E-01 dtmpmx=   9.2798E-02

== TH FLOW =====================================================================
 Step     99 Time=  4.35000E+00 Dt=  5.00000E-02 [y] snes_conv_reason:   11
  newton =   1 [     106] linear =   118 [     12469] cuts =  0 [   0]
  --> max chng: dpmx=   8.8904E-01 dtmpmx=   9.1954E-02

== TH FLOW =====================================================================
 Step    100 Time=  4.40000E+00 Dt=  5.00000E-02 [y] snes_conv_reason:   11
  newton =   1 [     107] linear =   117 [     12586] cuts =  0 [   0]
  --> max chng: dpmx=   8.8121E-01 dtmpmx=   9.1121E-02

== TH FLOW =====================================================================
 Step    101 Time=  4.45000E+00 Dt=  5.00000E-02 [y] snes_conv_reason:   11
  newton =   1 [     108] linear =   120 [     12706] cuts =  0 [   0]
  --> max chng: dpmx=   8.7392E-01 dtmpmx=   9.0298E-02

== TH FLOW =====================================================================
 Step    102 Time=  4.50000E+00 Dt=  5.00000E-02 [y] snes_conv_reason:   11
  newton =   1 [     109] linear =   122 [     12828] cuts =  0 [   0]
  --> max chng: dpmx=   8.6676E-01 dtmpmx=   8.9485E-02

== TH FLOW =====================================================================
 Step    103 Time=  4.55000E+00 Dt=  5.00000E-02 [y] snes_conv_reason:   11
  newton =   1 [     110] linear =   118 [     12946] cuts =  0 [   0]
  --> max chng: dpmx=   8.5900E-01 dtmpmx=   8.8683E-02

== TH FLOW =====================================================================
 Step    104 Time=  4.60000E+00 Dt=  5.00000E-02 [y] snes_conv_reason:   11
  newton =   1 [     111] linear =   117 [     13063] cuts =  0 [   0]
  --> max chng: dpmx=   8.5202E-01 dtmpmx=   8.7891E-02

== TH FLOW =====================================================================
 Step    105 Time=  4.65000E+00 Dt=  5.00000E-02 [y] snes_conv_reason:   11
  newton =   1 [     112] linear =   111 [     13174] cuts =  0 [   0]
  --> max chng: dpmx=   8.4396E-01 dtmpmx=   8.7109E-02

== TH FLOW =====================================================================
 Step    106 Time=  4.70000E+00 Dt=  5.00000E-02 [y] snes_conv_reason:   11
  newton =   1 [     113] linear =   119 [     13293] cuts =  0 [   0]
  --> max chng: dpmx=   8.3653E-01 dtmpmx=   8.6336E-02

== TH FLOW =====================================================================
 Step    107 Time=  4.75000E+00 Dt=  5.00000E-02 [y] snes_conv_reason:   11
  newton =   1 [     114] linear =   120 [     13413] cuts =  0 [   0]
  --> max chng: dpmx=   8.2961E-01 dtmpmx=   8.5574E-02

== TH FLOW =====================================================================
 Step    108 Time=  4.80000E+00 Dt=  5.00000E-02 [y] snes_conv_reason:   11
  newton =   1 [     115] linear =   116 [     13529] cuts =  0 [   0]
  --> max chng: dpmx=   8.2240E-01 dtmpmx=   8.4821E-02

== TH FLOW =====================================================================
 Step    109 Time=  4.85000E+00 Dt=  5.00000E-02 [y] snes_conv_reason:   11
  newton =   1 [     116] linear =   118 [     13647] cuts =  0 [   0]
  --> max chng: dpmx=   8.1449E-01 dtmpmx=   8.4118E-02

== TH FLOW =====================================================================
 Step    110 Time=  4.90000E+00 Dt=  5.00000E-02 [y] snes_conv_reason:   11
  newton =   1 [     117] linear =   120 [     13767] cuts =  0 [   0]
  --> max chng: dpmx=   8.0719E-01 dtmpmx=   8.3436E-02

== TH FLOW =====================================================================
 Step    111 Time=  4.95000E+00 Dt=  5.00000E-02 [y] snes_conv_reason:   11
  newton =   1 [     118] linear =   117 [     13884] cuts =  0 [   0]
  --> max chng: dpmx=   7.9960E-01 dtmpmx=   8.2762E-02

== TH FLOW =====================================================================
 Step    112 Time=  5.00000E+00 Dt=  5.00000E-02 [y] snes_conv_reason:   11
  newton =   1 [     119] linear =   117 [     14001] cuts =  0 [   0]
  --> max chng: dpmx=   7.9285E-01 dtmpmx=   8.2095E-02

== TH FLOW =====================================================================
 Step    113 Time=  5.05000E+00 Dt=  5.00000E-02 [y] snes_conv_reason:   11
  newton =   1 [     120] linear =   120 [     14121] cuts =  0 [   0]
  --> max chng: dpmx=   7.8493E-01 dtmpmx=   8.1435E-02

== TH FLOW =====================================================================
 Step    114 Time=  5.10000E+00 Dt=  5.00000E-02 [y] snes_conv_reason:   11
  newton =   1 [     121] linear =   117 [     14238] cuts =  0 [   0]
  --> max chng: dpmx=   7.7800E-01 dtmpmx=   8.0782E-02

== TH FLOW =====================================================================
 Step    115 Time=  5.15000E+00 Dt=  5.00000E-02 [y] snes_conv_reason:   11
  newton =   1 [     122] linear =   120 [     14358] cuts =  0 [   0]
  --> max chng: dpmx=   7.7048E-01 dtmpmx=   8.0135E-02

== TH FLOW =====================================================================
 Step    116 Time=  5.20000E+00 Dt=  5.00000E-02 [y] snes_conv_reason:   11
  newton =   1 [     123] linear =   120 [     14478] cuts =  0 [   0]
  --> max chng: dpmx=   7.6279E-01 dtmpmx=   7.9496E-02

== TH FLOW =====================================================================
 Step    117 Time=  5.25000E+00 Dt=  5.00000E-02 [y] snes_conv_reason:   11
  newton =   1 [     124] linear =   122 [     14600] cuts =  0 [   0]
  --> max chng: dpmx=   7.5578E-01 dtmpmx=   7.8863E-02

== TH FLOW =====================================================================
 Step    118 Time=  5.30000E+00 Dt=  5.00000E-02 [y] snes_conv_reason:   11
  newton =   1 [     125] linear =   117 [     14717] cuts =  0 [   0]
  --> max chng: dpmx=   7.4864E-01 dtmpmx=   7.8237E-02

== TH FLOW =====================================================================
 Step    119 Time=  5.35000E+00 Dt=  5.00000E-02 [y] snes_conv_reason:   11
  newton =   1 [     126] linear =   118 [     14835] cuts =  0 [   0]
  --> max chng: dpmx=   7.4125E-01 dtmpmx=   7.7618E-02

== TH FLOW =====================================================================
 Step    120 Time=  5.40000E+00 Dt=  5.00000E-02 [y] snes_conv_reason:   11
  newton =   1 [     127] linear =   119 [     14954] cuts =  0 [   0]
  --> max chng: dpmx=   7.3389E-01 dtmpmx=   7.7005E-02

== TH FLOW =====================================================================
 Step    121 Time=  5.45000E+00 Dt=  5.00000E-02 [y] snes_conv_reason:   11
  newton =   1 [     128] linear =   120 [     15074] cuts =  0 [   0]
  --> max chng: dpmx=   7.2663E-01 dtmpmx=   7.6440E-02

== TH FLOW =====================================================================
 Step    122 Time=  5.50000E+00 Dt=  5.00000E-02 [y] snes_conv_reason:   11
  newton =   1 [     129] linear =   115 [     15189] cuts =  0 [   0]
  --> max chng: dpmx=   7.1918E-01 dtmpmx=   7.5883E-02

== TH FLOW =====================================================================
 Step    123 Time=  5.55000E+00 Dt=  5.00000E-02 [y] snes_conv_reason:   11
  newton =   1 [     130] linear =   120 [     15309] cuts =  0 [   0]
  --> max chng: dpmx=   7.1209E-01 dtmpmx=   7.5330E-02

== TH FLOW =====================================================================
 Step    124 Time=  5.60000E+00 Dt=  5.00000E-02 [y] snes_conv_reason:   11
  newton =   1 [     131] linear =   117 [     15426] cuts =  0 [   0]
  --> max chng: dpmx=   7.0458E-01 dtmpmx=   7.4783E-02

== TH FLOW =====================================================================
 Step    125 Time=  5.65000E+00 Dt=  5.00000E-02 [y] snes_conv_reason:   11
  newton =   1 [     132] linear =   122 [     15548] cuts =  0 [   0]
  --> max chng: dpmx=   6.9779E-01 dtmpmx=   7.4240E-02

== TH FLOW =====================================================================
 Step    126 Time=  5.70000E+00 Dt=  5.00000E-02 [y] snes_conv_reason:   11
  newton =   1 [     133] linear =   118 [     15666] cuts =  0 [   0]
  --> max chng: dpmx=   7.0214E-01 dtmpmx=   7.3702E-02

== TH FLOW =====================================================================
 Step    127 Time=  5.75000E+00 Dt=  5.00000E-02 [y] snes_conv_reason:   11
  newton =   1 [     134] linear =    85 [     15751] cuts =  0 [   0]
  --> max chng: dpmx=   7.0761E-01 dtmpmx=   7.3169E-02

== TH FLOW =====================================================================
 Step    128 Time=  5.80000E+00 Dt=  5.00000E-02 [y] snes_conv_reason:   11
  newton =   1 [     135] linear =   113 [     15864] cuts =  0 [   0]
  --> max chng: dpmx=   7.1326E-01 dtmpmx=   7.2641E-02

== TH FLOW =====================================================================
 Step    129 Time=  5.85000E+00 Dt=  5.00000E-02 [y] snes_conv_reason:   11
  newton =   1 [     136] linear =   117 [     15981] cuts =  0 [   0]
  --> max chng: dpmx=   7.1864E-01 dtmpmx=   7.2117E-02

== TH FLOW =====================================================================
 Step    130 Time=  5.90000E+00 Dt=  5.00000E-02 [y] snes_conv_reason:   11
  newton =   1 [     137] linear =   117 [     16098] cuts =  0 [   0]
  --> max chng: dpmx=   7.2402E-01 dtmpmx=   7.1599E-02

== TH FLOW =====================================================================
 Step    131 Time=  5.95000E+00 Dt=  5.00000E-02 [y] snes_conv_reason:   11
  newton =   1 [     138] linear =   121 [     16219] cuts =  0 [   0]
  --> max chng: dpmx=   7.2947E-01 dtmpmx=   7.1084E-02

== TH FLOW =====================================================================
 Step    132 Time=  6.00000E+00 Dt=  5.00000E-02 [y] snes_conv_reason:   11
  newton =   1 [     139] linear =   117 [     16336] cuts =  0 [   0]
  --> max chng: dpmx=   7.3475E-01 dtmpmx=   7.0579E-02

== TH FLOW =====================================================================
 Step    133 Time=  6.05000E+00 Dt=  5.00000E-02 [y] snes_conv_reason:   11
  newton =   1 [     140] linear =   117 [     16453] cuts =  0 [   0]
  --> max chng: dpmx=   7.4036E-01 dtmpmx=   7.0110E-02

== TH FLOW =====================================================================
 Step    134 Time=  6.10000E+00 Dt=  5.00000E-02 [y] snes_conv_reason:   11
  newton =   1 [     141] linear =   120 [     16573] cuts =  0 [   0]
  --> max chng: dpmx=   7.4617E-01 dtmpmx=   6.9645E-02

== TH FLOW =====================================================================
 Step    135 Time=  6.15000E+00 Dt=  5.00000E-02 [y] snes_conv_reason:   11
  newton =   1 [     142] linear =   117 [     16690] cuts =  0 [   0]
  --> max chng: dpmx=   7.5134E-01 dtmpmx=   6.9184E-02

== TH FLOW =====================================================================
 Step    136 Time=  6.20000E+00 Dt=  5.00000E-02 [y] snes_conv_reason:   11
  newton =   1 [     143] linear =   123 [     16813] cuts =  0 [   0]
  --> max chng: dpmx=   7.5701E-01 dtmpmx=   6.8725E-02

== TH FLOW =====================================================================
 Step    137 Time=  6.25000E+00 Dt=  5.00000E-02 [y] snes_conv_reason:   11
  newton =   1 [     144] linear =   117 [     16930] cuts =  0 [   0]
  --> max chng: dpmx=   7.6237E-01 dtmpmx=   6.8271E-02

== TH FLOW =====================================================================
 Step    138 Time=  6.30000E+00 Dt=  5.00000E-02 [y] snes_conv_reason:   11
  newton =   1 [     145] linear =   116 [     17046] cuts =  0 [   0]
  --> max chng: dpmx=   7.6778E-01 dtmpmx=   6.7819E-02

== TH FLOW =====================================================================
 Step    139 Time=  6.35000E+00 Dt=  5.00000E-02 [y] snes_conv_reason:   11
  newton =   1 [     146] linear =   120 [     17166] cuts =  0 [   0]
  --> max chng: dpmx=   7.7352E-01 dtmpmx=   6.7371E-02

== TH FLOW =====================================================================
 Step    140 Time=  6.40000E+00 Dt=  5.00000E-02 [y] snes_conv_reason:   11
  newton =   1 [     147] linear =   120 [     17286] cuts =  0 [   0]
  --> max chng: dpmx=   7.7905E-01 dtmpmx=   6.6927E-02

== TH FLOW =====================================================================
 Step    141 Time=  6.45000E+00 Dt=  5.00000E-02 [y] snes_conv_reason:   11
  newton =   1 [     148] linear =   118 [     17404] cuts =  0 [   0]
  --> max chng: dpmx=   7.8461E-01 dtmpmx=   6.6485E-02

== TH FLOW =====================================================================
 Step    142 Time=  6.50000E+00 Dt=  5.00000E-02 [y] snes_conv_reason:   11
  newton =   1 [     149] linear =   122 [     17526] cuts =  0 [   0]
  --> max chng: dpmx=   7.9013E-01 dtmpmx=   6.6048E-02

== TH FLOW =====================================================================
 Step    143 Time=  6.55000E+00 Dt=  5.00000E-02 [y] snes_conv_reason:   11
  newton =   1 [     150] linear =   121 [     17647] cuts =  0 [   0]
  --> max chng: dpmx=   7.9562E-01 dtmpmx=   6.5613E-02

== TH FLOW =====================================================================
 Step    144 Time=  6.60000E+00 Dt=  5.00000E-02 [y] snes_conv_reason:   11
  newton =   1 [     151] linear =   127 [     17774] cuts =  0 [   0]
  --> max chng: dpmx=   8.0114E-01 dtmpmx=   6.5191E-02

== TH FLOW =====================================================================
 Step    145 Time=  6.65000E+00 Dt=  5.00000E-02 [y] snes_conv_reason:   11
  newton =   1 [     152] linear =   121 [     17895] cuts =  0 [   0]
  --> max chng: dpmx=   8.0671E-01 dtmpmx=   6.4794E-02

== TH FLOW =====================================================================
 Step    146 Time=  6.70000E+00 Dt=  5.00000E-02 [y] snes_conv_reason:   11
  newton =   1 [     153] linear =   122 [     18017] cuts =  0 [   0]
  --> max chng: dpmx=   8.1241E-01 dtmpmx=   6.4399E-02

== TH FLOW =====================================================================
 Step    147 Time=  6.75000E+00 Dt=  5.00000E-02 [y] snes_conv_reason:   11
  newton =   1 [     154] linear =   117 [     18134] cuts =  0 [   0]
  --> max chng: dpmx=   8.1800E-01 dtmpmx=   6.4006E-02

== TH FLOW =====================================================================
 Step    148 Time=  6.80000E+00 Dt=  5.00000E-02 [y] snes_conv_reason:   11
  newton =   1 [     155] linear =   117 [     18251] cuts =  0 [   0]
  --> max chng: dpmx=   8.2360E-01 dtmpmx=   6.3617E-02

== TH FLOW =====================================================================
 Step    149 Time=  6.85000E+00 Dt=  5.00000E-02 [y] snes_conv_reason:   11
  newton =   1 [     156] linear =   116 [     18367] cuts =  0 [   0]
  --> max chng: dpmx=   8.2913E-01 dtmpmx=   6.3229E-02

== TH FLOW =====================================================================
 Step    150 Time=  6.90000E+00 Dt=  5.00000E-02 [y] snes_conv_reason:   11
  newton =   1 [     157] linear =   124 [     18491] cuts =  0 [   0]
  --> max chng: dpmx=   8.3465E-01 dtmpmx=   6.2845E-02

== TH FLOW =====================================================================
 Step    151 Time=  6.95000E+00 Dt=  5.00000E-02 [y] snes_conv_reason:   11
  newton =   1 [     158] linear =   117 [     18608] cuts =  0 [   0]
  --> max chng: dpmx=   8.4035E-01 dtmpmx=   6.2462E-02

== TH FLOW =====================================================================
 Step    152 Time=  7.00000E+00 Dt=  5.00000E-02 [y] snes_conv_reason:   11
  newton =   1 [     159] linear =   121 [     18729] cuts =  0 [   0]
  --> max chng: dpmx=   8.4598E-01 dtmpmx=   6.2082E-02

== TH FLOW =====================================================================
 Step    153 Time=  7.05000E+00 Dt=  5.00000E-02 [y] snes_conv_reason:   11
  newton =   1 [     160] linear =   121 [     18850] cuts =  0 [   0]
  --> max chng: dpmx=   8.5165E-01 dtmpmx=   6.1705E-02

== TH FLOW =====================================================================
 Step    154 Time=  7.10000E+00 Dt=  5.00000E-02 [y] snes_conv_reason:   11
  newton =   1 [     161] linear =   117 [     18967] cuts =  0 [   0]
  --> max chng: dpmx=   8.5723E-01 dtmpmx=   6.1330E-02

== TH FLOW =====================================================================
 Step    155 Time=  7.15000E+00 Dt=  5.00000E-02 [y] snes_conv_reason:   11
  newton =   1 [     162] linear =   119 [     19086] cuts =  0 [   0]
  --> max chng: dpmx=   8.6281E-01 dtmpmx=   6.0958E-02

== TH FLOW =====================================================================
 Step    156 Time=  7.20000E+00 Dt=  5.00000E-02 [y] snes_conv_reason:   11
  newton =   1 [     163] linear =   116 [     19202] cuts =  0 [   0]
  --> max chng: dpmx=   8.6855E-01 dtmpmx=   6.0599E-02

== TH FLOW =====================================================================
 Step    157 Time=  7.25000E+00 Dt=  5.00000E-02 [y] snes_conv_reason:   11
  newton =   1 [     164] linear =   120 [     19322] cuts =  0 [   0]
  --> max chng: dpmx=   8.7398E-01 dtmpmx=   6.0258E-02

== TH FLOW =====================================================================
 Step    158 Time=  7.30000E+00 Dt=  5.00000E-02 [y] snes_conv_reason:   11
  newton =   1 [     165] linear =   119 [     19441] cuts =  0 [   0]
  --> max chng: dpmx=   8.7998E-01 dtmpmx=   5.9918E-02

== TH FLOW =====================================================================
 Step    159 Time=  7.35000E+00 Dt=  5.00000E-02 [y] snes_conv_reason:   11
  newton =   1 [     166] linear =   119 [     19560] cuts =  0 [   0]
  --> max chng: dpmx=   8.8535E-01 dtmpmx=   5.9580E-02

== TH FLOW =====================================================================
 Step    160 Time=  7.40000E+00 Dt=  5.00000E-02 [y] snes_conv_reason:   11
  newton =   1 [     167] linear =   115 [     19675] cuts =  0 [   0]
  --> max chng: dpmx=   8.9123E-01 dtmpmx=   5.9244E-02

== TH FLOW =====================================================================
 Step    161 Time=  7.45000E+00 Dt=  5.00000E-02 [y] snes_conv_reason:   11
  newton =   1 [     168] linear =   115 [     19790] cuts =  0 [   0]
  --> max chng: dpmx=   8.9686E-01 dtmpmx=   5.8910E-02

== TH FLOW =====================================================================
 Step    162 Time=  7.50000E+00 Dt=  5.00000E-02 [y] snes_conv_reason:   11
  newton =   1 [     169] linear =   120 [     19910] cuts =  0 [   0]
  --> max chng: dpmx=   9.0248E-01 dtmpmx=   5.8577E-02

== TH FLOW =====================================================================
 Step    163 Time=  7.55000E+00 Dt=  5.00000E-02 [y] snes_conv_reason:   11
  newton =   1 [     170] linear =   117 [     20027] cuts =  0 [   0]
  --> max chng: dpmx=   9.0811E-01 dtmpmx=   5.8247E-02

== TH FLOW =====================================================================
 Step    164 Time=  7.60000E+00 Dt=  5.00000E-02 [y] snes_conv_reason:   11
  newton =   1 [     171] linear =   118 [     20145] cuts =  0 [   0]
  --> max chng: dpmx=   9.1380E-01 dtmpmx=   5.7918E-02

== TH FLOW =====================================================================
 Step    165 Time=  7.65000E+00 Dt=  5.00000E-02 [y] snes_conv_reason:   11
  newton =   1 [     172] linear =   118 [     20263] cuts =  0 [   0]
  --> max chng: dpmx=   9.1962E-01 dtmpmx=   5.7591E-02

== TH FLOW =====================================================================
 Step    166 Time=  7.70000E+00 Dt=  5.00000E-02 [y] snes_conv_reason:   11
  newton =   1 [     173] linear =   110 [     20373] cuts =  0 [   0]
  --> max chng: dpmx=   9.2527E-01 dtmpmx=   5.7266E-02

== TH FLOW =====================================================================
 Step    167 Time=  7.75000E+00 Dt=  5.00000E-02 [y] snes_conv_reason:   11
  newton =   1 [     174] linear =   118 [     20491] cuts =  0 [   0]
  --> max chng: dpmx=   9.3094E-01 dtmpmx=   5.6943E-02

== TH FLOW =====================================================================
 Step    168 Time=  7.80000E+00 Dt=  5.00000E-02 [y] snes_conv_reason:   11
  newton =   1 [     175] linear =   118 [     20609] cuts =  0 [   0]
  --> max chng: dpmx=   9.3657E-01 dtmpmx=   5.6635E-02

== TH FLOW =====================================================================
 Step    169 Time=  7.85000E+00 Dt=  5.00000E-02 [y] snes_conv_reason:   11
  newton =   1 [     176] linear =   118 [     20727] cuts =  0 [   0]
  --> max chng: dpmx=   9.4227E-01 dtmpmx=   5.6338E-02

== TH FLOW =====================================================================
 Step    170 Time=  7.90000E+00 Dt=  5.00000E-02 [y] snes_conv_reason:   11
  newton =   1 [     177] linear =   118 [     20845] cuts =  0 [   0]
  --> max chng: dpmx=   9.4808E-01 dtmpmx=   5.6042E-02

== TH FLOW =====================================================================
 Step    171 Time=  7.95000E+00 Dt=  5.00000E-02 [y] snes_conv_reason:   11
  newton =   1 [     178] linear =   116 [     20961] cuts =  0 [   0]
  --> max chng: dpmx=   9.5383E-01 dtmpmx=   5.5748E-02

== TH FLOW =====================================================================
 Step    172 Time=  8.00000E+00 Dt=  5.00000E-02 [y] snes_conv_reason:   11
  newton =   1 [     179] linear =   117 [     21078] cuts =  0 [   0]
  --> max chng: dpmx=   9.5968E-01 dtmpmx=   5.5455E-02

== TH FLOW =====================================================================
 Step    173 Time=  8.05000E+00 Dt=  5.00000E-02 [y] snes_conv_reason:   11
  newton =   1 [     180] linear =   116 [     21194] cuts =  0 [   0]
  --> max chng: dpmx=   9.6533E-01 dtmpmx=   5.5163E-02

== TH FLOW =====================================================================
 Step    174 Time=  8.10000E+00 Dt=  5.00000E-02 [y] snes_conv_reason:   11
  newton =   1 [     181] linear =   119 [     21313] cuts =  0 [   0]
  --> max chng: dpmx=   9.7075E-01 dtmpmx=   5.4873E-02

== TH FLOW =====================================================================
 Step    175 Time=  8.15000E+00 Dt=  5.00000E-02 [y] snes_conv_reason:   11
  newton =   1 [     182] linear =   119 [     21432] cuts =  0 [   0]
  --> max chng: dpmx=   9.7658E-01 dtmpmx=   5.4584E-02

== TH FLOW =====================================================================
 Step    176 Time=  8.20000E+00 Dt=  5.00000E-02 [y] snes_conv_reason:   11
  newton =   1 [     183] linear =   116 [     21548] cuts =  0 [   0]
  --> max chng: dpmx=   9.8243E-01 dtmpmx=   5.4297E-02

== TH FLOW =====================================================================
 Step    177 Time=  8.25000E+00 Dt=  5.00000E-02 [y] snes_conv_reason:   11
  newton =   1 [     184] linear =   116 [     21664] cuts =  0 [   0]
  --> max chng: dpmx=   9.8857E-01 dtmpmx=   5.4011E-02

== TH FLOW =====================================================================
 Step    178 Time=  8.30000E+00 Dt=  5.00000E-02 [y] snes_conv_reason:   11
  newton =   1 [     185] linear =   116 [     21780] cuts =  0 [   0]
  --> max chng: dpmx=   9.9411E-01 dtmpmx=   5.3726E-02

== TH FLOW =====================================================================
 Step    179 Time=  8.35000E+00 Dt=  5.00000E-02 [y] snes_conv_reason:   11
  newton =   1 [     186] linear =   119 [     21899] cuts =  0 [   0]
  --> max chng: dpmx=   9.9963E-01 dtmpmx=   5.3443E-02

== TH FLOW =====================================================================
 Step    180 Time=  8.40000E+00 Dt=  5.00000E-02 [y] snes_conv_reason:    3
  newton =   1 [     187] linear =   115 [     22014] cuts =  0 [   0]
  --> max chng: dpmx=   1.0055E+00 dtmpmx=   5.3174E-02

== TH FLOW =====================================================================
 Step    181 Time=  8.45000E+00 Dt=  5.00000E-02 [y] snes_conv_reason:    3
  newton =   1 [     188] linear =   108 [     22122] cuts =  0 [   0]
  --> max chng: dpmx=   1.0112E+00 dtmpmx=   5.2913E-02

== TH FLOW =====================================================================
 Step    182 Time=  8.50000E+00 Dt=  5.00000E-02 [y] snes_conv_reason:    3
  newton =   1 [     189] linear =   119 [     22241] cuts =  0 [   0]
  --> max chng: dpmx=   1.0171E+00 dtmpmx=   5.2653E-02

== TH FLOW =====================================================================
 Step    183 Time=  8.55000E+00 Dt=  5.00000E-02 [y] snes_conv_reason:    3
  newton =   1 [     190] linear =   115 [     22356] cuts =  0 [   0]
  --> max chng: dpmx=   1.0226E+00 dtmpmx=   5.2394E-02

== TH FLOW =====================================================================
 Step    184 Time=  8.60000E+00 Dt=  5.00000E-02 [y] snes_conv_reason:    3
  newton =   1 [     191] linear =   110 [     22466] cuts =  0 [   0]
  --> max chng: dpmx=   1.0287E+00 dtmpmx=   5.2137E-02

== TH FLOW =====================================================================
 Step    185 Time=  8.65000E+00 Dt=  5.00000E-02 [y] snes_conv_reason:    3
  newton =   1 [     192] linear =   110 [     22576] cuts =  0 [   0]
  --> max chng: dpmx=   1.0345E+00 dtmpmx=   5.1880E-02

== TH FLOW =====================================================================
 Step    186 Time=  8.70000E+00 Dt=  5.00000E-02 [y] snes_conv_reason:    3
  newton =   1 [     193] linear =   115 [     22691] cuts =  0 [   0]
  --> max chng: dpmx=   1.0404E+00 dtmpmx=   5.1624E-02

== TH FLOW =====================================================================
 Step    187 Time=  8.75000E+00 Dt=  5.00000E-02 [y] snes_conv_reason:    3
  newton =   1 [     194] linear =   121 [     22812] cuts =  0 [   0]
  --> max chng: dpmx=   1.0459E+00 dtmpmx=   5.1369E-02

== TH FLOW =====================================================================
 Step    188 Time=  8.80000E+00 Dt=  5.00000E-02 [y] snes_conv_reason:    3
  newton =   1 [     195] linear =   115 [     22927] cuts =  0 [   0]
  --> max chng: dpmx=   1.0517E+00 dtmpmx=   5.1116E-02

== TH FLOW =====================================================================
 Step    189 Time=  8.85000E+00 Dt=  5.00000E-02 [y] snes_conv_reason:    3
  newton =   1 [     196] linear =   118 [     23045] cuts =  0 [   0]
  --> max chng: dpmx=   1.0576E+00 dtmpmx=   5.0863E-02

== TH FLOW =====================================================================
 Step    190 Time=  8.90000E+00 Dt=  5.00000E-02 [y] snes_conv_reason:    3
  newton =   1 [     197] linear =   122 [     23167] cuts =  0 [   0]
  --> max chng: dpmx=   1.0634E+00 dtmpmx=   5.0612E-02

== TH FLOW =====================================================================
 Step    191 Time=  8.95000E+00 Dt=  5.00000E-02 [y] snes_conv_reason:    3
  newton =   1 [     198] linear =   111 [     23278] cuts =  0 [   0]
  --> max chng: dpmx=   1.0692E+00 dtmpmx=   5.0361E-02

== TH FLOW =====================================================================
 Step    192 Time=  9.00000E+00 Dt=  5.00000E-02 [y] snes_conv_reason:    3
  newton =   1 [     199] linear =   115 [     23393] cuts =  0 [   0]
  --> max chng: dpmx=   1.0750E+00 dtmpmx=   5.0124E-02

== TH FLOW =====================================================================
 Step    193 Time=  9.05000E+00 Dt=  5.00000E-02 [y] snes_conv_reason:    3
  newton =   1 [     200] linear =   115 [     23508] cuts =  0 [   0]
  --> max chng: dpmx=   1.0808E+00 dtmpmx=   4.9893E-02

== TH FLOW =====================================================================
 Step    194 Time=  9.10000E+00 Dt=  5.00000E-02 [y] snes_conv_reason:    3
  newton =   1 [     201] linear =   115 [     23623] cuts =  0 [   0]
  --> max chng: dpmx=   1.0865E+00 dtmpmx=   4.9663E-02

== TH FLOW =====================================================================
 Step    195 Time=  9.15000E+00 Dt=  5.00000E-02 [y] snes_conv_reason:    3
  newton =   1 [     202] linear =   117 [     23740] cuts =  0 [   0]
  --> max chng: dpmx=   1.0924E+00 dtmpmx=   4.9434E-02

== TH FLOW =====================================================================
 Step    196 Time=  9.20000E+00 Dt=  5.00000E-02 [y] snes_conv_reason:    3
  newton =   1 [     203] linear =   118 [     23858] cuts =  0 [   0]
  --> max chng: dpmx=   1.0981E+00 dtmpmx=   4.9205E-02

== TH FLOW =====================================================================
 Step    197 Time=  9.25000E+00 Dt=  5.00000E-02 [y] snes_conv_reason:    3
  newton =   1 [     204] linear =   115 [     23973] cuts =  0 [   0]
  --> max chng: dpmx=   1.1042E+00 dtmpmx=   4.8977E-02

== TH FLOW =====================================================================
 Step    198 Time=  9.30000E+00 Dt=  5.00000E-02 [y] snes_conv_reason:    3
  newton =   1 [     205] linear =   110 [     24083] cuts =  0 [   0]
  --> max chng: dpmx=   1.1098E+00 dtmpmx=   4.8750E-02

== TH FLOW =====================================================================
 Step    199 Time=  9.35000E+00 Dt=  5.00000E-02 [y] snes_conv_reason:    3
  newton =   1 [     206] linear =   110 [     24193] cuts =  0 [   0]
  --> max chng: dpmx=   1.1154E+00 dtmpmx=   4.8523E-02

== TH FLOW =====================================================================
 Step    200 Time=  9.40000E+00 Dt=  5.00000E-02 [y] snes_conv_reason:    3
  newton =   1 [     207] linear =   114 [     24307] cuts =  0 [   0]
  --> max chng: dpmx=   1.1212E+00 dtmpmx=   4.8298E-02

== TH FLOW =====================================================================
 Step    201 Time=  9.45000E+00 Dt=  5.00000E-02 [y] snes_conv_reason:    3
  newton =   1 [     208] linear =   115 [     24422] cuts =  0 [   0]
  --> max chng: dpmx=   1.1271E+00 dtmpmx=   4.8073E-02

== TH FLOW =====================================================================
 Step    202 Time=  9.50000E+00 Dt=  5.00000E-02 [y] snes_conv_reason:    3
  newton =   1 [     209] linear =   114 [     24536] cuts =  0 [   0]
  --> max chng: dpmx=   1.1327E+00 dtmpmx=   4.7849E-02

== TH FLOW =====================================================================
 Step    203 Time=  9.55000E+00 Dt=  5.00000E-02 [y] snes_conv_reason:    3
  newton =   1 [     210] linear =   117 [     24653] cuts =  0 [   0]
  --> max chng: dpmx=   1.1388E+00 dtmpmx=   4.7626E-02

== TH FLOW =====================================================================
 Step    204 Time=  9.60000E+00 Dt=  5.00000E-02 [y] snes_conv_reason:    3
  newton =   1 [     211] linear =   116 [     24769] cuts =  0 [   0]
  --> max chng: dpmx=   1.1443E+00 dtmpmx=   4.7415E-02

== TH FLOW =====================================================================
 Step    205 Time=  9.65000E+00 Dt=  5.00000E-02 [y] snes_conv_reason:    3
  newton =   1 [     212] linear =   116 [     24885] cuts =  0 [   0]
  --> max chng: dpmx=   1.1501E+00 dtmpmx=   4.7209E-02

== TH FLOW =====================================================================
 Step    206 Time=  9.70000E+00 Dt=  5.00000E-02 [y] snes_conv_reason:    3
  newton =   1 [     213] linear =   108 [     24993] cuts =  0 [   0]
  --> max chng: dpmx=   1.1557E+00 dtmpmx=   4.7003E-02

== TH FLOW =====================================================================
 Step    207 Time=  9.75000E+00 Dt=  5.00000E-02 [y] snes_conv_reason:    3
  newton =   1 [     214] linear =   113 [     25106] cuts =  0 [   0]
  --> max chng: dpmx=   1.1614E+00 dtmpmx=   4.6798E-02

== TH FLOW =====================================================================
 Step    208 Time=  9.80000E+00 Dt=  5.00000E-02 [y] snes_conv_reason:    3
  newton =   1 [     215] linear =   113 [     25219] cuts =  0 [   0]
  --> max chng: dpmx=   1.1669E+00 dtmpmx=   4.6594E-02

== TH FLOW =====================================================================
 Step    209 Time=  9.85000E+00 Dt=  5.00000E-02 [y] snes_conv_reason:    3
  newton =   1 [     216] linear =   114 [     25333] cuts =  0 [   0]
  --> max chng: dpmx=   1.1725E+00 dtmpmx=   4.6390E-02

== TH FLOW =====================================================================
 Step    210 Time=  9.90000E+00 Dt=  5.00000E-02 [y] snes_conv_reason:    3
  newton =   1 [     217] linear =   110 [     25443] cuts =  0 [   0]
  --> max chng: dpmx=   1.1778E+00 dtmpmx=   4.6187E-02

== TH FLOW =====================================================================
 Step    211 Time=  9.95000E+00 Dt=  5.00000E-02 [y] snes_conv_reason:    3
  newton =   1 [     218] linear =   115 [     25558] cuts =  0 [   0]
  --> max chng: dpmx=   1.1837E+00 dtmpmx=   4.5984E-02

== TH FLOW =====================================================================
 Step    212 Time=  1.00000E+01 Dt=  5.00000E-02 [y] snes_conv_reason:    3
  newton =   1 [     219] linear =   119 [     25677] cuts =  0 [   0]
  --> max chng: dpmx=   1.1889E+00 dtmpmx=   4.5782E-02

== TH FLOW =====================================================================
 Step    213 Time=  1.00500E+01 Dt=  5.00000E-02 [y] snes_conv_reason:    3
  newton =   1 [     220] linear =   112 [     25789] cuts =  0 [   0]
  --> max chng: dpmx=   1.1944E+00 dtmpmx=   4.5581E-02

== TH FLOW =====================================================================
 Step    214 Time=  1.01000E+01 Dt=  5.00000E-02 [y] snes_conv_reason:    3
  newton =   1 [     221] linear =   113 [     25902] cuts =  0 [   0]
  --> max chng: dpmx=   1.1993E+00 dtmpmx=   4.5380E-02

== TH FLOW =====================================================================
 Step    215 Time=  1.01500E+01 Dt=  5.00000E-02 [y] snes_conv_reason:    3
  newton =   1 [     222] linear =   112 [     26014] cuts =  0 [   0]
  --> max chng: dpmx=   1.2045E+00 dtmpmx=   4.5180E-02

== TH FLOW =====================================================================
 Step    216 Time=  1.02000E+01 Dt=  5.00000E-02 [y] snes_conv_reason:    3
  newton =   1 [     223] linear =   108 [     26122] cuts =  0 [   0]
  --> max chng: dpmx=   1.2095E+00 dtmpmx=   4.4991E-02

== TH FLOW =====================================================================
 Step    217 Time=  1.02500E+01 Dt=  5.00000E-02 [y] snes_conv_reason:    3
  newton =   1 [     224] linear =   108 [     26230] cuts =  0 [   0]
  --> max chng: dpmx=   1.2147E+00 dtmpmx=   4.4806E-02

== TH FLOW =====================================================================
 Step    218 Time=  1.03000E+01 Dt=  5.00000E-02 [y] snes_conv_reason:    3
  newton =   1 [     225] linear =   113 [     26343] cuts =  0 [   0]
  --> max chng: dpmx=   1.2192E+00 dtmpmx=   4.4621E-02

== TH FLOW =====================================================================
 Step    219 Time=  1.03500E+01 Dt=  5.00000E-02 [y] snes_conv_reason:    3
  newton =   1 [     226] linear =   113 [     26456] cuts =  0 [   0]
  --> max chng: dpmx=   1.2240E+00 dtmpmx=   4.4436E-02

== TH FLOW =====================================================================
 Step    220 Time=  1.04000E+01 Dt=  5.00000E-02 [y] snes_conv_reason:    3
  newton =   1 [     227] linear =   117 [     26573] cuts =  0 [   0]
  --> max chng: dpmx=   1.2282E+00 dtmpmx=   4.4253E-02

== TH FLOW =====================================================================
 Step    221 Time=  1.04500E+01 Dt=  5.00000E-02 [y] snes_conv_reason:    3
  newton =   1 [     228] linear =   112 [     26685] cuts =  0 [   0]
  --> max chng: dpmx=   1.2328E+00 dtmpmx=   4.4069E-02

== TH FLOW =====================================================================
 Step    222 Time=  1.05000E+01 Dt=  5.00000E-02 [y] snes_conv_reason:    3
  newton =   1 [     229] linear =   112 [     26797] cuts =  0 [   0]
  --> max chng: dpmx=   1.2362E+00 dtmpmx=   4.3886E-02

== TH FLOW =====================================================================
 Step    223 Time=  1.05500E+01 Dt=  5.00000E-02 [y] snes_conv_reason:    3
  newton =   1 [     230] linear =   114 [     26911] cuts =  0 [   0]
  --> max chng: dpmx=   1.2406E+00 dtmpmx=   4.3704E-02

== TH FLOW =====================================================================
 Step    224 Time=  1.06000E+01 Dt=  5.00000E-02 [y] snes_conv_reason:    3
  newton =   1 [     231] linear =   115 [     27026] cuts =  0 [   0]
  --> max chng: dpmx=   1.2439E+00 dtmpmx=   4.3522E-02

== TH FLOW =====================================================================
 Step    225 Time=  1.06500E+01 Dt=  5.00000E-02 [y] snes_conv_reason:    3
  newton =   1 [     232] linear =   115 [     27141] cuts =  0 [   0]
  --> max chng: dpmx=   1.2469E+00 dtmpmx=   4.3340E-02

== TH FLOW =====================================================================
 Step    226 Time=  1.07000E+01 Dt=  5.00000E-02 [y] snes_conv_reason:    3
  newton =   1 [     233] linear =   104 [     27245] cuts =  0 [   0]
  --> max chng: dpmx=   1.2500E+00 dtmpmx=   4.3159E-02

== TH FLOW =====================================================================
 Step    227 Time=  1.07500E+01 Dt=  5.00000E-02 [y] snes_conv_reason:    3
  newton =   1 [     234] linear =   107 [     27352] cuts =  0 [   0]
  --> max chng: dpmx=   1.2527E+00 dtmpmx=   4.2979E-02

== TH FLOW =====================================================================
 Step    228 Time=  1.08000E+01 Dt=  5.00000E-02 [y] snes_conv_reason:    3
  newton =   1 [     235] linear =   114 [     27466] cuts =  0 [   0]
  --> max chng: dpmx=   1.2547E+00 dtmpmx=   4.2807E-02

== TH FLOW =====================================================================
 Step    229 Time=  1.08500E+01 Dt=  5.00000E-02 [y] snes_conv_reason:    3
  newton =   1 [     236] linear =   117 [     27583] cuts =  0 [   0]
  --> max chng: dpmx=   1.2563E+00 dtmpmx=   4.2640E-02

== TH FLOW =====================================================================
 Step    230 Time=  1.09000E+01 Dt=  5.00000E-02 [y] snes_conv_reason:    3
  newton =   1 [     237] linear =   111 [     27694] cuts =  0 [   0]
  --> max chng: dpmx=   1.2579E+00 dtmpmx=   4.2473E-02

== TH FLOW =====================================================================
 Step    231 Time=  1.09500E+01 Dt=  5.00000E-02 [y] snes_conv_reason:    3
  newton =   1 [     238] linear =   112 [     27806] cuts =  0 [   0]
  --> max chng: dpmx=   1.2587E+00 dtmpmx=   4.2306E-02

== TH FLOW =====================================================================
 Step    232 Time=  1.10000E+01 Dt=  5.00000E-02 [y] snes_conv_reason:    3
  newton =   1 [     239] linear =   112 [     27918] cuts =  0 [   0]
  --> max chng: dpmx=   1.2590E+00 dtmpmx=   4.2140E-02

== TH FLOW =====================================================================
 Step    233 Time=  1.10500E+01 Dt=  5.00000E-02 [y] snes_conv_reason:    3
  newton =   1 [     240] linear =   111 [     28029] cuts =  0 [   0]
  --> max chng: dpmx=   1.2585E+00 dtmpmx=   4.1974E-02

== TH FLOW =====================================================================
 Step    234 Time=  1.11000E+01 Dt=  5.00000E-02 [y] snes_conv_reason:    3
  newton =   1 [     241] linear =   116 [     28145] cuts =  0 [   0]
  --> max chng: dpmx=   1.2582E+00 dtmpmx=   4.1808E-02

== TH FLOW =====================================================================
 Step    235 Time=  1.11500E+01 Dt=  5.00000E-02 [y] snes_conv_reason:    3
  newton =   1 [     242] linear =   115 [     28260] cuts =  0 [   0]
  --> max chng: dpmx=   1.2564E+00 dtmpmx=   4.1643E-02

== TH FLOW =====================================================================
 Step    236 Time=  1.12000E+01 Dt=  5.00000E-02 [y] snes_conv_reason:    3
  newton =   1 [     243] linear =   117 [     28377] cuts =  0 [   0]
  --> max chng: dpmx=   1.2545E+00 dtmpmx=   4.1478E-02

== TH FLOW =====================================================================
 Step    237 Time=  1.12500E+01 Dt=  5.00000E-02 [y] snes_conv_reason:    3
  newton =   1 [     244] linear =   115 [     28492] cuts =  0 [   0]
  --> max chng: dpmx=   1.2516E+00 dtmpmx=   4.1314E-02

== TH FLOW =====================================================================
 Step    238 Time=  1.13000E+01 Dt=  5.00000E-02 [y] snes_conv_reason:    3
  newton =   1 [     245] linear =   115 [     28607] cuts =  0 [   0]
  --> max chng: dpmx=   1.2480E+00 dtmpmx=   4.1149E-02

== TH FLOW =====================================================================
 Step    239 Time=  1.13500E+01 Dt=  5.00000E-02 [y] snes_conv_reason:    3
  newton =   1 [     246] linear =   119 [     28726] cuts =  0 [   0]
  --> max chng: dpmx=   1.2437E+00 dtmpmx=   4.0985E-02

== TH FLOW =====================================================================
 Step    240 Time=  1.14000E+01 Dt=  5.00000E-02 [y] snes_conv_reason:    3
  newton =   1 [     247] linear =   118 [     28844] cuts =  0 [   0]
  --> max chng: dpmx=   1.2385E+00 dtmpmx=   4.0829E-02

== TH FLOW =====================================================================
 Step    241 Time=  1.14500E+01 Dt=  5.00000E-02 [y] snes_conv_reason:    3
  newton =   1 [     248] linear =   113 [     28957] cuts =  0 [   0]
  --> max chng: dpmx=   1.2328E+00 dtmpmx=   4.0677E-02

== TH FLOW =====================================================================
 Step    242 Time=  1.15000E+01 Dt=  5.00000E-02 [y] snes_conv_reason:    3
  newton =   1 [     249] linear =   118 [     29075] cuts =  0 [   0]
  --> max chng: dpmx=   1.2257E+00 dtmpmx=   4.0525E-02

== TH FLOW =====================================================================
 Step    243 Time=  1.15500E+01 Dt=  5.00000E-02 [y] snes_conv_reason:    3
  newton =   1 [     250] linear =   113 [     29188] cuts =  0 [   0]
  --> max chng: dpmx=   1.2181E+00 dtmpmx=   4.0374E-02

== TH FLOW =====================================================================
 Step    244 Time=  1.16000E+01 Dt=  5.00000E-02 [y] snes_conv_reason:    3
  newton =   1 [     251] linear =   113 [     29301] cuts =  0 [   0]
  --> max chng: dpmx=   1.2092E+00 dtmpmx=   4.0222E-02

== TH FLOW =====================================================================
 Step    245 Time=  1.16500E+01 Dt=  5.00000E-02 [y] snes_conv_reason:    3
  newton =   1 [     252] linear =   119 [     29420] cuts =  0 [   0]
  --> max chng: dpmx=   1.1997E+00 dtmpmx=   4.0071E-02

== TH FLOW =====================================================================
 Step    246 Time=  1.17000E+01 Dt=  5.00000E-02 [y] snes_conv_reason:    3
  newton =   1 [     253] linear =   117 [     29537] cuts =  0 [   0]
  --> max chng: dpmx=   1.1890E+00 dtmpmx=   3.9920E-02

== TH FLOW =====================================================================
 Step    247 Time=  1.17500E+01 Dt=  5.00000E-02 [y] snes_conv_reason:    3
  newton =   1 [     254] linear =   115 [     29652] cuts =  0 [   0]
  --> max chng: dpmx=   1.1774E+00 dtmpmx=   3.9770E-02

== TH FLOW =====================================================================
 Step    248 Time=  1.18000E+01 Dt=  5.00000E-02 [y] snes_conv_reason:    3
  newton =   1 [     255] linear =   116 [     29768] cuts =  0 [   0]
  --> max chng: dpmx=   1.1646E+00 dtmpmx=   3.9619E-02

== TH FLOW =====================================================================
 Step    249 Time=  1.18500E+01 Dt=  5.00000E-02 [y] snes_conv_reason:    3
  newton =   1 [     256] linear =   112 [     29880] cuts =  0 [   0]
  --> max chng: dpmx=   1.1511E+00 dtmpmx=   3.9469E-02

== TH FLOW =====================================================================
 Step    250 Time=  1.19000E+01 Dt=  5.00000E-02 [y] snes_conv_reason:    3
  newton =   1 [     257] linear =   115 [     29995] cuts =  0 [   0]
  --> max chng: dpmx=   1.1363E+00 dtmpmx=   3.9319E-02

== TH FLOW =====================================================================
 Step    251 Time=  1.19500E+01 Dt=  5.00000E-02 [y] snes_conv_reason:    3
  newton =   1 [     258] linear =   115 [     30110] cuts =  0 [   0]
  --> max chng: dpmx=   1.1205E+00 dtmpmx=   3.9170E-02

== TH FLOW =====================================================================
 Step    252 Time=  1.20000E+01 Dt=  5.00000E-02 [y] snes_conv_reason:    3
  newton =   1 [     259] linear =   111 [     30221] cuts =  0 [   0]
  --> max chng: dpmx=   1.1040E+00 dtmpmx=   3.9026E-02

== TH FLOW =====================================================================
 Step    253 Time=  1.20500E+01 Dt=  5.00000E-02 [y] snes_conv_reason:    3
  newton =   1 [     260] linear =   118 [     30339] cuts =  0 [   0]
  --> max chng: dpmx=   1.0861E+00 dtmpmx=   3.8887E-02

== TH FLOW =====================================================================
 Step    254 Time=  1.21000E+01 Dt=  5.00000E-02 [y] snes_conv_reason:    3
  newton =   1 [     261] linear =   111 [     30450] cuts =  0 [   0]
  --> max chng: dpmx=   1.0676E+00 dtmpmx=   3.8748E-02

== TH FLOW =====================================================================
 Step    255 Time=  1.21500E+01 Dt=  5.00000E-02 [y] snes_conv_reason:    3
  newton =   1 [     262] linear =   118 [     30568] cuts =  0 [   0]
  --> max chng: dpmx=   1.0478E+00 dtmpmx=   3.8609E-02

== TH FLOW =====================================================================
 Step    256 Time=  1.22000E+01 Dt=  5.00000E-02 [y] snes_conv_reason:    3
  newton =   1 [     263] linear =   117 [     30685] cuts =  0 [   0]
  --> max chng: dpmx=   1.0274E+00 dtmpmx=   3.8471E-02

== TH FLOW =====================================================================
 Step    257 Time=  1.22500E+01 Dt=  5.00000E-02 [y] snes_conv_reason:    3
  newton =   1 [     264] linear =   114 [     30799] cuts =  0 [   0]
  --> max chng: dpmx=   1.0058E+00 dtmpmx=   3.8332E-02

[...]
 Step    493 Time=  2.40500E+01 Dt=  5.00000E-02 [y] snes_conv_reason:   11
  newton =   1 [     500] linear =   116 [     57412] cuts =  0 [   0]
  --> max chng: dpmx=   2.0919E-03 dtmpmx=   7.2580E-05

== TH FLOW =====================================================================
 Step    494 Time=  2.41000E+01 Dt=  5.00000E-02 [y] snes_conv_reason:   11
  newton =   1 [     501] linear =   110 [     57522] cuts =  0 [   0]
  --> max chng: dpmx=   2.0336E-03 dtmpmx=   7.1523E-05

== TH FLOW =====================================================================
 Step    495 Time=  2.41500E+01 Dt=  5.00000E-02 [y] snes_conv_reason:   11
  newton =   1 [     502] linear =   114 [     57636] cuts =  0 [   0]
  --> max chng: dpmx=   1.9753E-03 dtmpmx=   7.0442E-05

== TH FLOW =====================================================================
 Step    496 Time=  2.42000E+01 Dt=  5.00000E-02 [y] snes_conv_reason:   11
  newton =   1 [     503] linear =   115 [     57751] cuts =  0 [   0]
  --> max chng: dpmx=   1.9182E-03 dtmpmx=   6.9337E-05

== TH FLOW =====================================================================
 Step    497 Time=  2.42500E+01 Dt=  5.00000E-02 [y] snes_conv_reason:   11
  newton =   1 [     504] linear =   115 [     57866] cuts =  0 [   0]
  --> max chng: dpmx=   1.8613E-03 dtmpmx=   6.8209E-05

== TH FLOW =====================================================================
 Step    498 Time=  2.43000E+01 Dt=  5.00000E-02 [y] snes_conv_reason:   11
  newton =   1 [     505] linear =   120 [     57986] cuts =  0 [   0]
  --> max chng: dpmx=   1.8058E-03 dtmpmx=   6.7060E-05

== TH FLOW =====================================================================
 Step    499 Time=  2.43500E+01 Dt=  5.00000E-02 [y] snes_conv_reason:   11
  newton =   1 [     506] linear =   118 [     58104] cuts =  0 [   0]
  --> max chng: dpmx=   1.7504E-03 dtmpmx=   6.5890E-05

== TH FLOW =====================================================================
 Step    500 Time=  2.44000E+01 Dt=  5.00000E-02 [y] snes_conv_reason:   11
  newton =   1 [     507] linear =   118 [     58222] cuts =  0 [   0]
  --> max chng: dpmx=   1.6956E-03 dtmpmx=   6.4701E-05

== TH FLOW =====================================================================
 Step    501 Time=  2.44500E+01 Dt=  5.00000E-02 [y] snes_conv_reason:   11
  newton =   1 [     508] linear =   118 [     58340] cuts =  0 [   0]
  --> max chng: dpmx=   1.6419E-03 dtmpmx=   6.3494E-05

== TH FLOW =====================================================================
 Step    502 Time=  2.45000E+01 Dt=  5.00000E-02 [y] snes_conv_reason:   11
  newton =   1 [     509] linear =   118 [     58458] cuts =  0 [   0]
  --> max chng: dpmx=   1.5890E-03 dtmpmx=   6.2271E-05

== TH FLOW =====================================================================
 Step    503 Time=  2.45500E+01 Dt=  5.00000E-02 [y] snes_conv_reason:   11
  newton =   1 [     510] linear =   117 [     58575] cuts =  0 [   0]
  --> max chng: dpmx=   1.5369E-03 dtmpmx=   6.1032E-05

== TH FLOW =====================================================================
 Step    504 Time=  2.46000E+01 Dt=  5.00000E-02 [y] snes_conv_reason:   11
  newton =   1 [     511] linear =   116 [     58691] cuts =  0 [   0]
  --> max chng: dpmx=   1.4854E-03 dtmpmx=   5.9779E-05

== TH FLOW =====================================================================
 Step    505 Time=  2.46500E+01 Dt=  5.00000E-02 [y] snes_conv_reason:   11
  newton =   1 [     512] linear =   118 [     58809] cuts =  0 [   0]
  --> max chng: dpmx=   1.4351E-03 dtmpmx=   5.8513E-05

== TH FLOW =====================================================================
 Step    506 Time=  2.47000E+01 Dt=  5.00000E-02 [y] snes_conv_reason:   11
  newton =   1 [     513] linear =   119 [     58928] cuts =  0 [   0]
  --> max chng: dpmx=   1.3854E-03 dtmpmx=   5.7237E-05

== TH FLOW =====================================================================
 Step    507 Time=  2.47500E+01 Dt=  5.00000E-02 [y] snes_conv_reason:   11
  newton =   1 [     514] linear =   119 [     59047] cuts =  0 [   0]
  --> max chng: dpmx=   1.3369E-03 dtmpmx=   5.5951E-05

== TH FLOW =====================================================================
 Step    508 Time=  2.48000E+01 Dt=  5.00000E-02 [y] snes_conv_reason:   11
  newton =   1 [     515] linear =   123 [     59170] cuts =  0 [   0]
  --> max chng: dpmx=   1.2891E-03 dtmpmx=   5.4657E-05

== TH FLOW =====================================================================
 Step    509 Time=  2.48500E+01 Dt=  5.00000E-02 [y] snes_conv_reason:   11
  newton =   1 [     516] linear =   116 [     59286] cuts =  0 [   0]
  --> max chng: dpmx=   1.2421E-03 dtmpmx=   5.3356E-05

== TH FLOW =====================================================================
 Step    510 Time=  2.49000E+01 Dt=  5.00000E-02 [y] snes_conv_reason:   11
  newton =   1 [     517] linear =   120 [     59406] cuts =  0 [   0]
  --> max chng: dpmx=   1.1964E-03 dtmpmx=   5.2058E-05

== TH FLOW =====================================================================
 Step    511 Time=  2.49500E+01 Dt=  5.00000E-02 [y] snes_conv_reason:   11
  newton =   1 [     518] linear =   120 [     59526] cuts =  0 [   0]
  --> max chng: dpmx=   1.1514E-03 dtmpmx=   5.0786E-05

== TH FLOW =====================================================================
 Step    512 Time=  2.50000E+01 Dt=  5.00000E-02 [y] snes_conv_reason:   11
  newton =   1 [     519] linear =   120 [     59646] cuts =  0 [   0]
  --> max chng: dpmx=   1.1076E-03 dtmpmx=   4.9511E-05

== TH FLOW =====================================================================
 Step    513 Time=  2.50500E+01 Dt=  5.00000E-02 [y] snes_conv_reason:   11
  newton =   1 [     520] linear =   118 [     59764] cuts =  0 [   0]
  --> max chng: dpmx=   1.0645E-03 dtmpmx=   4.8234E-05

== TH FLOW =====================================================================
 Step    514 Time=  2.51000E+01 Dt=  5.00000E-02 [y] snes_conv_reason:   11
  newton =   1 [     521] linear =   119 [     59883] cuts =  0 [   0]
  --> max chng: dpmx=   1.0225E-03 dtmpmx=   4.6957E-05

== TH FLOW =====================================================================
 Step    515 Time=  2.51500E+01 Dt=  5.00000E-02 [y] snes_conv_reason:   11
  newton =   1 [     522] linear =   114 [     59997] cuts =  0 [   0]
  --> max chng: dpmx=   9.8142E-04 dtmpmx=   4.5680E-05

== TH FLOW =====================================================================
 Step    516 Time=  2.52000E+01 Dt=  5.00000E-02 [y] snes_conv_reason:   11
  newton =   1 [     523] linear =   119 [     60116] cuts =  0 [   0]
  --> max chng: dpmx=   9.4156E-04 dtmpmx=   4.4406E-05

== TH FLOW =====================================================================
 Step    517 Time=  2.52500E+01 Dt=  5.00000E-02 [y] snes_conv_reason:   11
  newton =   1 [     524] linear =   117 [     60233] cuts =  0 [   0]
  --> max chng: dpmx=   9.0257E-04 dtmpmx=   4.3136E-05

== TH FLOW =====================================================================
 Step    518 Time=  2.53000E+01 Dt=  5.00000E-02 [y] snes_conv_reason:   11
  newton =   1 [     525] linear =   118 [     60351] cuts =  0 [   0]
  --> max chng: dpmx=   8.6472E-04 dtmpmx=   4.1871E-05

== TH FLOW =====================================================================
 Step    519 Time=  2.53500E+01 Dt=  5.00000E-02 [y] snes_conv_reason:   11
  newton =   1 [     526] linear =   119 [     60470] cuts =  0 [   0]
  --> max chng: dpmx=   8.2760E-04 dtmpmx=   4.0614E-05

== TH FLOW =====================================================================
 Step    520 Time=  2.54000E+01 Dt=  5.00000E-02 [y] snes_conv_reason:   11
  newton =   1 [     527] linear =   116 [     60586] cuts =  0 [   0]
  --> max chng: dpmx=   7.9198E-04 dtmpmx=   3.9364E-05

== TH FLOW =====================================================================
 Step    521 Time=  2.54500E+01 Dt=  5.00000E-02 [y] snes_conv_reason:   11
  newton =   1 [     528] linear =   126 [     60712] cuts =  0 [   0]
  --> max chng: dpmx=   7.5678E-04 dtmpmx=   3.8123E-05

== TH FLOW =====================================================================
 Step    522 Time=  2.55000E+01 Dt=  5.00000E-02 [y] snes_conv_reason:   11
  newton =   1 [     529] linear =   120 [     60832] cuts =  0 [   0]
  --> max chng: dpmx=   7.2292E-04 dtmpmx=   3.6894E-05

== TH FLOW =====================================================================
 Step    523 Time=  2.55500E+01 Dt=  5.00000E-02 [y] snes_conv_reason:   11
  newton =   1 [     530] linear =   118 [     60950] cuts =  0 [   0]
  --> max chng: dpmx=   6.9019E-04 dtmpmx=   3.5676E-05

== TH FLOW =====================================================================
 Step    524 Time=  2.56000E+01 Dt=  5.00000E-02 [y] snes_conv_reason:   11
  newton =   1 [     531] linear =   122 [     61072] cuts =  0 [   0]
  --> max chng: dpmx=   6.5811E-04 dtmpmx=   3.4472E-05

== TH FLOW =====================================================================
 Step    525 Time=  2.56500E+01 Dt=  5.00000E-02 [y] snes_conv_reason:   11
  newton =   1 [     532] linear =   121 [     61193] cuts =  0 [   0]
  --> max chng: dpmx=   6.2730E-04 dtmpmx=   3.3282E-05

== TH FLOW =====================================================================
 Step    526 Time=  2.57000E+01 Dt=  5.00000E-02 [y] snes_conv_reason:   11
  newton =   1 [     533] linear =   125 [     61318] cuts =  0 [   0]
  --> max chng: dpmx=   5.9756E-04 dtmpmx=   3.2108E-05

== TH FLOW =====================================================================
 Step    527 Time=  2.57500E+01 Dt=  5.00000E-02 [y] snes_conv_reason:   11
  newton =   1 [     534] linear =   122 [     61440] cuts =  0 [   0]
  --> max chng: dpmx=   5.6847E-04 dtmpmx=   3.0950E-05

== TH FLOW =====================================================================
 Step    528 Time=  2.58000E+01 Dt=  5.00000E-02 [y] snes_conv_reason:   11
  newton =   1 [     535] linear =   122 [     61562] cuts =  0 [   0]
  --> max chng: dpmx=   5.4060E-04 dtmpmx=   2.9810E-05

== TH FLOW =====================================================================
 Step    529 Time=  2.58500E+01 Dt=  5.00000E-02 [y] snes_conv_reason:   11
  newton =   1 [     536] linear =   120 [     61682] cuts =  0 [   0]
  --> max chng: dpmx=   5.1368E-04 dtmpmx=   2.8688E-05

== TH FLOW =====================================================================
 Step    530 Time=  2.59000E+01 Dt=  5.00000E-02 [y] snes_conv_reason:   11
  newton =   1 [     537] linear =   120 [     61802] cuts =  0 [   0]
  --> max chng: dpmx=   4.8746E-04 dtmpmx=   2.7586E-05

== TH FLOW =====================================================================
 Step    531 Time=  2.59500E+01 Dt=  5.00000E-02 [y] snes_conv_reason:   11
  newton =   1 [     538] linear =   122 [     61924] cuts =  0 [   0]
  --> max chng: dpmx=   4.6253E-04 dtmpmx=   2.6503E-05

== TH FLOW =====================================================================
 Step    532 Time=  2.60000E+01 Dt=  5.00000E-02 [y] snes_conv_reason:   11
  newton =   1 [     539] linear =   123 [     62047] cuts =  0 [   0]
  --> max chng: dpmx=   4.3828E-04 dtmpmx=   2.5442E-05

== TH FLOW =====================================================================
 Step    533 Time=  2.60500E+01 Dt=  5.00000E-02 [y] snes_conv_reason:   11
  newton =   1 [     540] linear =   122 [     62169] cuts =  0 [   0]
  --> max chng: dpmx=   4.1507E-04 dtmpmx=   2.4403E-05

== TH FLOW =====================================================================
 Step    534 Time=  2.61000E+01 Dt=  5.00000E-02 [y] snes_conv_reason:   11
  newton =   1 [     541] linear =   125 [     62294] cuts =  0 [   0]
  --> max chng: dpmx=   3.9265E-04 dtmpmx=   2.3385E-05

== TH FLOW =====================================================================
 Step    535 Time=  2.61500E+01 Dt=  5.00000E-02 [y] snes_conv_reason:   11
  newton =   1 [     542] linear =   122 [     62416] cuts =  0 [   0]
  --> max chng: dpmx=   3.7119E-04 dtmpmx=   2.2391E-05

== TH FLOW =====================================================================
 Step    536 Time=  2.62000E+01 Dt=  5.00000E-02 [y] snes_conv_reason:   11
  newton =   1 [     543] linear =   124 [     62540] cuts =  0 [   0]
  --> max chng: dpmx=   3.5052E-04 dtmpmx=   2.1420E-05

== TH FLOW =====================================================================
 Step    537 Time=  2.62500E+01 Dt=  5.00000E-02 [y] snes_conv_reason:   11
  newton =   1 [     544] linear =   124 [     62664] cuts =  0 [   0]
  --> max chng: dpmx=   3.3076E-04 dtmpmx=   2.0473E-05

== TH FLOW =====================================================================
 Step    538 Time=  2.63000E+01 Dt=  5.00000E-02 [y] snes_conv_reason:   11
  newton =   1 [     545] linear =   124 [     62788] cuts =  0 [   0]
  --> max chng: dpmx=   3.1178E-04 dtmpmx=   1.9550E-05

== TH FLOW =====================================================================
 Step    539 Time=  2.63500E+01 Dt=  5.00000E-02 [y] snes_conv_reason:   11
  newton =   1 [     546] linear =   125 [     62913] cuts =  0 [   0]
  --> max chng: dpmx=   2.9354E-04 dtmpmx=   1.8651E-05

== TH FLOW =====================================================================
 Step    540 Time=  2.64000E+01 Dt=  5.00000E-02 [y] snes_conv_reason:   11
  newton =   1 [     547] linear =   132 [     63045] cuts =  0 [   0]
  --> max chng: dpmx=   2.7621E-04 dtmpmx=   1.7777E-05

== TH FLOW =====================================================================
 Step    541 Time=  2.64500E+01 Dt=  5.00000E-02 [y] snes_conv_reason:   11
  newton =   1 [     548] linear =   125 [     63170] cuts =  0 [   0]
  --> max chng: dpmx=   2.5964E-04 dtmpmx=   1.6928E-05

== TH FLOW =====================================================================
 Step    542 Time=  2.65000E+01 Dt=  5.00000E-02 [y] snes_conv_reason:   11
  newton =   1 [     549] linear =   123 [     63293] cuts =  0 [   0]
  --> max chng: dpmx=   2.4366E-04 dtmpmx=   1.6104E-05

== TH FLOW =====================================================================
 Step    543 Time=  2.65500E+01 Dt=  5.00000E-02 [y] snes_conv_reason:   11
  newton =   1 [     550] linear =   124 [     63417] cuts =  0 [   0]
  --> max chng: dpmx=   2.2861E-04 dtmpmx=   1.5306E-05

== TH FLOW =====================================================================
 Step    544 Time=  2.66000E+01 Dt=  5.00000E-02 [y] snes_conv_reason:   11
  newton =   1 [     551] linear =   123 [     63540] cuts =  0 [   0]
  --> max chng: dpmx=   2.1412E-04 dtmpmx=   1.4532E-05

== TH FLOW =====================================================================
 Step    545 Time=  2.66500E+01 Dt=  5.00000E-02 [y] snes_conv_reason:   11
  newton =   1 [     552] linear =   124 [     63664] cuts =  0 [   0]
  --> max chng: dpmx=   2.0034E-04 dtmpmx=   1.3784E-05

== TH FLOW =====================================================================
 Step    546 Time=  2.67000E+01 Dt=  5.00000E-02 [y] snes_conv_reason:   11
  newton =   1 [     553] linear =   123 [     63787] cuts =  0 [   0]
  --> max chng: dpmx=   1.8731E-04 dtmpmx=   1.3060E-05

== TH FLOW =====================================================================
 Step    547 Time=  2.67500E+01 Dt=  5.00000E-02 [y] snes_conv_reason:   11
  newton =   1 [     554] linear =   123 [     63910] cuts =  0 [   0]
  --> max chng: dpmx=   1.7486E-04 dtmpmx=   1.2362E-05

== TH FLOW =====================================================================
 Step    548 Time=  2.68000E+01 Dt=  5.00000E-02 [y] snes_conv_reason:   11
  newton =   1 [     555] linear =   121 [     64031] cuts =  0 [   0]
  --> max chng: dpmx=   1.6298E-04 dtmpmx=   1.1688E-05

== TH FLOW =====================================================================
 Step    549 Time=  2.68500E+01 Dt=  5.00000E-02 [y] snes_conv_reason:   11
  newton =   1 [     556] linear =   122 [     64153] cuts =  0 [   0]
  --> max chng: dpmx=   1.5187E-04 dtmpmx=   1.1039E-05

== TH FLOW =====================================================================
 Step    550 Time=  2.69000E+01 Dt=  5.00000E-02 [y] snes_conv_reason:   11
  newton =   1 [     557] linear =   122 [     64275] cuts =  0 [   0]
  --> max chng: dpmx=   1.4119E-04 dtmpmx=   1.0414E-05

== TH FLOW =====================================================================
 Step    551 Time=  2.69500E+01 Dt=  5.00000E-02 [y] snes_conv_reason:   11
  newton =   1 [     558] linear =   121 [     64396] cuts =  0 [   0]
  --> max chng: dpmx=   1.3113E-04 dtmpmx=   9.8134E-06

== TH FLOW =====================================================================
 Step    552 Time=  2.70000E+01 Dt=  5.00000E-02 [y] snes_conv_reason:   11
  newton =   1 [     559] linear =   123 [     64519] cuts =  0 [   0]
  --> max chng: dpmx=   1.2160E-04 dtmpmx=   9.2360E-06

== TH FLOW =====================================================================
 Step    553 Time=  2.70500E+01 Dt=  5.00000E-02 [y] snes_conv_reason:   11
  newton =   1 [     560] linear =   124 [     64643] cuts =  0 [   0]
  --> max chng: dpmx=   1.1262E-04 dtmpmx=   8.6819E-06

== TH FLOW =====================================================================
 Step    554 Time=  2.71000E+01 Dt=  5.00000E-02 [y] snes_conv_reason:   11
  newton =   1 [     561] linear =   124 [     64767] cuts =  0 [   0]
  --> max chng: dpmx=   1.0413E-04 dtmpmx=   8.1506E-06

== TH FLOW =====================================================================
 Step    555 Time=  2.71500E+01 Dt=  5.00000E-02 [y] snes_conv_reason:   11
  newton =   1 [     562] linear =   125 [     64892] cuts =  0 [   0]
  --> max chng: dpmx=   9.6117E-05 dtmpmx=   7.6417E-06

== TH FLOW =====================================================================
 Step    556 Time=  2.72000E+01 Dt=  5.00000E-02 [y] snes_conv_reason:   11
  newton =   1 [     563] linear =   127 [     65019] cuts =  0 [   0]
  --> max chng: dpmx=   8.8586E-05 dtmpmx=   7.1547E-06

== TH FLOW =====================================================================
 Step    557 Time=  2.72500E+01 Dt=  5.00000E-02 [y] snes_conv_reason:   11
  newton =   1 [     564] linear =   124 [     65143] cuts =  0 [   0]
  --> max chng: dpmx=   8.1485E-05 dtmpmx=   6.6892E-06

== TH FLOW =====================================================================
 Step    558 Time=  2.73000E+01 Dt=  5.00000E-02 [y] snes_conv_reason:   11
  newton =   1 [     565] linear =   124 [     65267] cuts =  0 [   0]
  --> max chng: dpmx=   7.4832E-05 dtmpmx=   6.2447E-06

== TH FLOW =====================================================================
 Step    559 Time=  2.73500E+01 Dt=  5.00000E-02 [y] snes_conv_reason:   11
  newton =   1 [     566] linear =   124 [     65391] cuts =  0 [   0]
  --> max chng: dpmx=   6.8587E-05 dtmpmx=   5.8205E-06

== TH FLOW =====================================================================
 Step    560 Time=  2.74000E+01 Dt=  5.00000E-02 [y] snes_conv_reason:   11
  newton =   1 [     567] linear =   122 [     65513] cuts =  0 [   0]
  --> max chng: dpmx=   6.2719E-05 dtmpmx=   5.4162E-06

== TH FLOW =====================================================================
 Step    561 Time=  2.74500E+01 Dt=  5.00000E-02 [y] snes_conv_reason:   11
  newton =   1 [     568] linear =   121 [     65634] cuts =  0 [   0]
  --> max chng: dpmx=   5.7253E-05 dtmpmx=   5.0313E-06

== TH FLOW =====================================================================
 Step    562 Time=  2.75000E+01 Dt=  5.00000E-02 [y] snes_conv_reason:   11
  newton =   1 [     569] linear =   123 [     65757] cuts =  0 [   0]
  --> max chng: dpmx=   5.2121E-05 dtmpmx=   4.6651E-06

 Wall Clock Time:  2.2636E+02 [sec]   3.7726E+00 [min]   6.2877E-02 [hr]
