
===================
  PFLOTRAN v3.0.1
===================

 Extent of Gridded Domain
  X: 2.5000000000000000 - 97.500000000000000
  Y: 2.5000000000000000 - 1277.5000000000000
  Z: 2.5000000000000000 - 2.5000000000000000


=+=+=+=+=+=+=+=+=+=+=+=+=+=+=+=+=+=+=+=+=+=+=+=+=+=+=+=+=+=+=+=+=+=+=+=+=+=+=+=+

  Initial Condition

--------------------------------------------------------------------------------
          Flow Condition:   initial
                  Region:   all
--------------------------------------------------------------------------------

  Flow Condition: initial
    Synchronize time with update: no
    Time units: yr
    Length units: m
      Datum:
        Dataset: Unnamed Ascii Dataset
          Type: dataset_ascii_type
          Transient: no
          Array Rank:  3

    Sub Condition: pressure
      Type: hydrostatic
      Gradient:
        Dataset: Unnamed Ascii Dataset
          Type: dataset_ascii_type
          Transient: no
          Array Rank:  3
      Data:
        Dataset: Unnamed Ascii Dataset
          Type: dataset_ascii_type
          Transient: no
          Array Rank:  1

    Sub Condition: temperature
      Type: dirichlet
      Gradient:
      Data:
        Dataset: Unnamed Ascii Dataset
          Type: dataset_ascii_type
          Transient: no
          Array Rank:  1

--------------------------------------------------------------------------------

=+=+=+=+=+=+=+=+=+=+=+=+=+=+=+=+=+=+=+=+=+=+=+=+=+=+=+=+=+=+=+=+=+=+=+=+=+=+=+=+

  Boundary Condition

--------------------------------------------------------------------------------
          Flow Condition:   initial
                  Region:   north
--------------------------------------------------------------------------------

  Flow Condition: initial
    Synchronize time with update: no
    Time units: yr
    Length units: m
      Datum:
        Dataset: Unnamed Ascii Dataset
          Type: dataset_ascii_type
          Transient: no
          Array Rank:  3

    Sub Condition: pressure
      Type: hydrostatic
      Gradient:
        Dataset: Unnamed Ascii Dataset
          Type: dataset_ascii_type
          Transient: no
          Array Rank:  3
      Data:
        Dataset: Unnamed Ascii Dataset
          Type: dataset_ascii_type
          Transient: no
          Array Rank:  1

    Sub Condition: temperature
      Type: dirichlet
      Gradient:
      Data:
        Dataset: Unnamed Ascii Dataset
          Type: dataset_ascii_type
          Transient: no
          Array Rank:  1

--------------------------------------------------------------------------------

=+=+=+=+=+=+=+=+=+=+=+=+=+=+=+=+=+=+=+=+=+=+=+=+=+=+=+=+=+=+=+=+=+=+=+=+=+=+=+=+

  Boundary Condition

--------------------------------------------------------------------------------
          Flow Condition:   initial
                  Region:   south
--------------------------------------------------------------------------------

  Flow Condition: initial
    Synchronize time with update: no
    Time units: yr
    Length units: m
      Datum:
        Dataset: Unnamed Ascii Dataset
          Type: dataset_ascii_type
          Transient: no
          Array Rank:  3

    Sub Condition: pressure
      Type: hydrostatic
      Gradient:
        Dataset: Unnamed Ascii Dataset
          Type: dataset_ascii_type
          Transient: no
          Array Rank:  3
      Data:
        Dataset: Unnamed Ascii Dataset
          Type: dataset_ascii_type
          Transient: no
          Array Rank:  1

    Sub Condition: temperature
      Type: dirichlet
      Gradient:
      Data:
        Dataset: Unnamed Ascii Dataset
          Type: dataset_ascii_type
          Transient: no
          Array Rank:  1

--------------------------------------------------------------------------------

=+=+=+=+=+=+=+=+=+=+=+=+=+=+=+=+=+=+=+=+=+=+=+=+=+=+=+=+=+=+=+=+=+=+=+=+=+=+=+=+

  Source Sink

--------------------------------------------------------------------------------
          Flow Condition:   injection
                  Region:   heatpump_inject0
--------------------------------------------------------------------------------

  Flow Condition: injection
    Synchronize time with update: no
    Time units: yr
    Length units: m
      Datum:

    Sub Condition: rate
      Type: scaled volumetric rate
      Gradient:
      Data:
        Dataset: Unnamed Ascii Dataset
          Type: dataset_ascii_type
          Is transient?: yes
          Number of times:      3
          Is cyclic?: no
          Buffer:
            Rank:  2
            Dims:    1   3
            Buffer Slice Size:   0
          Array Rank:  1

    Sub Condition: temperature
      Type: dirichlet
      Gradient:
      Data:
        Dataset: Unnamed Ascii Dataset
          Type: dataset_ascii_type
          Transient: no
          Array Rank:  1

--------------------------------------------------------------------------------

 Requested processors =    16

FLOW Time Stepper
                 acceleration: on
       acceleration threshold: 5
       number of ramp entries: 5
                ramp entry #1: 2.0000
                ramp entry #2: 2.0000
                ramp entry #3: 2.0000
                ramp entry #4: 2.0000
                ramp entry #5: 2.0000
                ramp entry #6: 1.8000
                ramp entry #7: 1.6000
                ramp entry #8: 1.4000
                ramp entry #9: 1.2000
               ramp entry #10: 1.0000
               ramp entry #11: 1.0000
               ramp entry #12: 1.0000
               ramp entry #13: 1.0000
      maximum number of steps: 999999
constant time steps threshold: 5
       maximum number of cuts: 16
             reduction factor: 5.000000E-01
        maximum growth factor: 2.000000E+00

FLOW Newton Solver
                         atol: 1.000000E-50
                         rtol: 1.000000E-03
                         stol: 1.000000E-08
                         dtol: 1.000000E+04
                      maxnorm: 1.000000E+20
                    inftolres: -9.990000E+02
                    inftolupd: 1.000000E+00
                 inftolrelupd: -9.990000E+02
                 inftolsclres: -9.990000E+02
                     max iter: 50
                     min iter: 1
                         maxf: 10000
                  matrix type: baij
         precond. matrix type: baij
               inexact newton: off
            print convergence: on
   print detailed convergence: off
          check infinity norm: on

FLOW Linear Solver
                       solver: bcgs
               preconditioner: bjacobi
                         atol: 1.000000E-50
                         rtol: 1.000000E-05
                         dtol: 1.000000E+04
            maximum iteration: 10000

== TH FLOW =====================================================================
 Step      1 Time=  1.00000E-05 Dt=  1.00000E-05 [y] snes_conv_reason:   11
  newton =   1 [       1] linear =    66 [        66] cuts =  0 [   0]
  --> max chng: dpmx=   7.5983E-02 dtmpmx=   2.2531E-08

== TH FLOW =====================================================================
 Step      2 Time=  3.00000E-05 Dt=  2.00000E-05 [y] snes_conv_reason:   11
  newton =   1 [       2] linear =    95 [       161] cuts =  0 [   0]
  --> max chng: dpmx=   7.0591E-03 dtmpmx=   4.4881E-08

== TH FLOW =====================================================================
 Step      3 Time=  7.00000E-05 Dt=  4.00000E-05 [y] snes_conv_reason:   11
  newton =   1 [       3] linear =   119 [       280] cuts =  0 [   0]
  --> max chng: dpmx=   3.2671E-04 dtmpmx=   8.9746E-08

== TH FLOW =====================================================================
 Step      4 Time=  1.50000E-04 Dt=  8.00000E-05 [y] snes_conv_reason:   11
  newton =   1 [       4] linear =   118 [       398] cuts =  0 [   0]
  --> max chng: dpmx=   7.3288E-06 dtmpmx=   1.7949E-07

== TH FLOW =====================================================================
 Step      5 Time=  3.10000E-04 Dt=  1.60000E-04 [y] snes_conv_reason:   11
  newton =   1 [       5] linear =   113 [       511] cuts =  0 [   0]
  --> max chng: dpmx=   1.2085E-06 dtmpmx=   3.5899E-07

== TH FLOW =====================================================================
 Step      6 Time=  6.30000E-04 Dt=  3.20000E-04 [y] snes_conv_reason:   11
  newton =   1 [       6] linear =   122 [       633] cuts =  0 [   0]
  --> max chng: dpmx=   2.4813E-06 dtmpmx=   7.1797E-07

== TH FLOW =====================================================================
 Step      7 Time=  1.27000E-03 Dt=  6.40000E-04 [y] snes_conv_reason:   11
  newton =   1 [       7] linear =   118 [       751] cuts =  0 [   0]
  --> max chng: dpmx=   5.1908E-06 dtmpmx=   1.4359E-06

== TH FLOW =====================================================================
 Step      8 Time=  2.55000E-03 Dt=  1.28000E-03 [y] snes_conv_reason:   11
  newton =   1 [       8] linear =   121 [       872] cuts =  0 [   0]
  --> max chng: dpmx=   1.1328E-05 dtmpmx=   2.8719E-06

== TH FLOW =====================================================================
 Step      9 Time=  5.11000E-03 Dt=  2.56000E-03 [y] snes_conv_reason:   11
  newton =   1 [       9] linear =   122 [       994] cuts =  0 [   0]
  --> max chng: dpmx=   2.6386E-05 dtmpmx=   5.7438E-06

== TH FLOW =====================================================================
 Step     10 Time=  1.02300E-02 Dt=  5.12000E-03 [y] snes_conv_reason:   11
  newton =   1 [      10] linear =   122 [      1116] cuts =  0 [   0]
  --> max chng: dpmx=   6.7707E-05 dtmpmx=   1.1488E-05

== TH FLOW =====================================================================
 Step     11 Time=  2.04700E-02 Dt=  1.02400E-02 [y] snes_conv_reason:   11
  newton =   1 [      11] linear =   120 [      1236] cuts =  0 [   0]
  --> max chng: dpmx=   1.9411E-04 dtmpmx=   2.2975E-05

== TH FLOW =====================================================================
 Step     12 Time=  4.09500E-02 Dt=  2.04800E-02 [y] snes_conv_reason:   11
  newton =   1 [      12] linear =   121 [      1357] cuts =  0 [   0]
  --> max chng: dpmx=   6.1682E-04 dtmpmx=   4.5950E-05

== TH FLOW =====================================================================
 Step     13 Time=  8.19100E-02 Dt=  4.09600E-02 [y] snes_conv_reason:   11
  newton =   1 [      13] linear =   117 [      1474] cuts =  0 [   0]
  --> max chng: dpmx=   2.1029E-03 dtmpmx=   9.1900E-05

== TH FLOW =====================================================================
 Step     14 Time=  1.00000E-01 Dt=  1.80900E-02 [y] snes_conv_reason:   11
  newton =   1 [      14] linear =   121 [      1595] cuts =  0 [   0]
  --> max chng: dpmx=   1.0998E-03 dtmpmx=   4.0588E-05

== TH FLOW =====================================================================
 Step     15 Time=  1.50000E-01 Dt=  5.00000E-02 [y] snes_conv_reason:   11
  newton =   1 [      15] linear =   109 [      1704] cuts =  0 [   0]
  --> max chng: dpmx=   4.2598E-03 dtmpmx=   1.1218E-04

== TH FLOW =====================================================================
 Step     16 Time=  2.00000E-01 Dt=  5.00000E-02 [y] snes_conv_reason:   11
  newton =   1 [      16] linear =   121 [      1825] cuts =  0 [   0]
  --> max chng: dpmx=   5.4311E-03 dtmpmx=   1.1218E-04

== TH FLOW =====================================================================
 Step     17 Time=  2.50000E-01 Dt=  5.00000E-02 [y] snes_conv_reason:   11
  newton =   2 [      18] linear =   236 [      2061] cuts =  0 [   0]
  --> max chng: dpmx=   1.0696E+02 dtmpmx=   1.7746E+00

== TH FLOW =====================================================================
 Step     18 Time=  3.00000E-01 Dt=  5.00000E-02 [y] snes_conv_reason:   11
  newton =   2 [      20] linear =   241 [      2302] cuts =  0 [   0]
  --> max chng: dpmx=   1.6917E+00 dtmpmx=   6.8129E-01

== TH FLOW =====================================================================
 Step     19 Time=  3.50000E-01 Dt=  5.00000E-02 [y] snes_conv_reason:   11
  newton =   2 [      22] linear =   243 [      2545] cuts =  0 [   0]
  --> max chng: dpmx=   1.5895E+00 dtmpmx=   4.9128E-01

== TH FLOW =====================================================================
 Step     20 Time=  4.00000E-01 Dt=  5.00000E-02 [y] snes_conv_reason:   11
  newton =   2 [      24] linear =   248 [      2793] cuts =  0 [   0]
  --> max chng: dpmx=   1.5212E+00 dtmpmx=   3.9966E-01

== TH FLOW =====================================================================
 Step     21 Time=  4.50000E-01 Dt=  5.00000E-02 [y] snes_conv_reason:   11
  newton =   2 [      26] linear =   237 [      3030] cuts =  0 [   0]
  --> max chng: dpmx=   1.4630E+00 dtmpmx=   3.4276E-01

== TH FLOW =====================================================================
 Step     22 Time=  5.00000E-01 Dt=  5.00000E-02 [y] snes_conv_reason:   11
  newton =   2 [      28] linear =   247 [      3277] cuts =  0 [   0]
  --> max chng: dpmx=   1.4099E+00 dtmpmx=   3.0286E-01

== TH FLOW =====================================================================
 Step     23 Time=  5.50000E-01 Dt=  5.00000E-02 [y] snes_conv_reason:   11
  newton =   2 [      30] linear =   247 [      3524] cuts =  0 [   0]
  --> max chng: dpmx=   1.3600E+00 dtmpmx=   2.7280E-01

== TH FLOW =====================================================================
 Step     24 Time=  6.00000E-01 Dt=  5.00000E-02 [y] snes_conv_reason:    3
  newton =   1 [      31] linear =   114 [      3638] cuts =  0 [   0]
  --> max chng: dpmx=   1.3112E+00 dtmpmx=   2.4920E-01

== TH FLOW =====================================================================
 Step     25 Time=  6.50000E-01 Dt=  5.00000E-02 [y] snes_conv_reason:    3
  newton =   1 [      32] linear =   112 [      3750] cuts =  0 [   0]
  --> max chng: dpmx=   1.2664E+00 dtmpmx=   2.2985E-01

== TH FLOW =====================================================================
 Step     26 Time=  7.00000E-01 Dt=  5.00000E-02 [y] snes_conv_reason:    3
  newton =   1 [      33] linear =   111 [      3861] cuts =  0 [   0]
  --> max chng: dpmx=   1.2208E+00 dtmpmx=   2.1365E-01

== TH FLOW =====================================================================
 Step     27 Time=  7.50000E-01 Dt=  5.00000E-02 [y] snes_conv_reason:    3
  newton =   1 [      34] linear =   111 [      3972] cuts =  0 [   0]
  --> max chng: dpmx=   1.1771E+00 dtmpmx=   1.9983E-01

== TH FLOW =====================================================================
 Step     28 Time=  8.00000E-01 Dt=  5.00000E-02 [y] snes_conv_reason:    3
  newton =   1 [      35] linear =   116 [      4088] cuts =  0 [   0]
  --> max chng: dpmx=   1.1338E+00 dtmpmx=   1.8783E-01

== TH FLOW =====================================================================
 Step     29 Time=  8.50000E-01 Dt=  5.00000E-02 [y] snes_conv_reason:    3
  newton =   1 [      36] linear =   116 [      4204] cuts =  0 [   0]
  --> max chng: dpmx=   1.0915E+00 dtmpmx=   1.7728E-01

== TH FLOW =====================================================================
 Step     30 Time=  9.00000E-01 Dt=  5.00000E-02 [y] snes_conv_reason:    3
  newton =   1 [      37] linear =   115 [      4319] cuts =  0 [   0]
  --> max chng: dpmx=   1.0494E+00 dtmpmx=   1.6790E-01

== TH FLOW =====================================================================
 Step     31 Time=  9.50000E-01 Dt=  5.00000E-02 [y] snes_conv_reason:    3
  newton =   1 [      38] linear =   117 [      4436] cuts =  0 [   0]
  --> max chng: dpmx=   1.0081E+00 dtmpmx=   1.5951E-01

== TH FLOW =====================================================================
 Step     32 Time=  1.00000E+00 Dt=  5.00000E-02 [y] snes_conv_reason:   11
  newton =   1 [      39] linear =   115 [      4551] cuts =  0 [   0]
  --> max chng: dpmx=   9.6752E-01 dtmpmx=   1.5194E-01

== TH FLOW =====================================================================
 Step     33 Time=  1.05000E+00 Dt=  5.00000E-02 [y] snes_conv_reason:   11
  newton =   1 [      40] linear =   117 [      4668] cuts =  0 [   0]
  --> max chng: dpmx=   9.2680E-01 dtmpmx=   1.4506E-01

== TH FLOW =====================================================================
 Step     34 Time=  1.10000E+00 Dt=  5.00000E-02 [y] snes_conv_reason:   11
  newton =   1 [      41] linear =   116 [      4784] cuts =  0 [   0]
  --> max chng: dpmx=   8.8687E-01 dtmpmx=   1.3878E-01

== TH FLOW =====================================================================
 Step     35 Time=  1.15000E+00 Dt=  5.00000E-02 [y] snes_conv_reason:   11
  newton =   1 [      42] linear =   113 [      4897] cuts =  0 [   0]
  --> max chng: dpmx=   8.4711E-01 dtmpmx=   1.3303E-01

== TH FLOW =====================================================================
 Step     36 Time=  1.20000E+00 Dt=  5.00000E-02 [y] snes_conv_reason:   11
  newton =   1 [      43] linear =   111 [      5008] cuts =  0 [   0]
  --> max chng: dpmx=   8.0838E-01 dtmpmx=   1.2772E-01

== TH FLOW =====================================================================
 Step     37 Time=  1.25000E+00 Dt=  5.00000E-02 [y] snes_conv_reason:   11
  newton =   1 [      44] linear =   102 [      5110] cuts =  0 [   0]
  --> max chng: dpmx=   7.6857E-01 dtmpmx=   1.2282E-01

== TH FLOW =====================================================================
 Step     38 Time=  1.30000E+00 Dt=  5.00000E-02 [y] snes_conv_reason:   11
  newton =   1 [      45] linear =   113 [      5223] cuts =  0 [   0]
  --> max chng: dpmx=   7.3036E-01 dtmpmx=   1.1827E-01

== TH FLOW =====================================================================
 Step     39 Time=  1.35000E+00 Dt=  5.00000E-02 [y] snes_conv_reason:   11
  newton =   1 [      46] linear =   109 [      5332] cuts =  0 [   0]
  --> max chng: dpmx=   6.9201E-01 dtmpmx=   1.1403E-01

== TH FLOW =====================================================================
 Step     40 Time=  1.40000E+00 Dt=  5.00000E-02 [y] snes_conv_reason:   11
  newton =   1 [      47] linear =   107 [      5439] cuts =  0 [   0]
  --> max chng: dpmx=   6.6075E-01 dtmpmx=   1.1008E-01

== TH FLOW =====================================================================
 Step     41 Time=  1.45000E+00 Dt=  5.00000E-02 [y] snes_conv_reason:   11
  newton =   1 [      48] linear =   108 [      5547] cuts =  0 [   0]
  --> max chng: dpmx=   6.8580E-01 dtmpmx=   1.0638E-01

== TH FLOW =====================================================================
 Step     42 Time=  1.50000E+00 Dt=  5.00000E-02 [y] snes_conv_reason:   11
  newton =   1 [      49] linear =   112 [      5659] cuts =  0 [   0]
  --> max chng: dpmx=   7.1102E-01 dtmpmx=   1.0291E-01

== TH FLOW =====================================================================
 Step     43 Time=  1.55000E+00 Dt=  5.00000E-02 [y] snes_conv_reason:   11
  newton =   1 [      50] linear =   113 [      5772] cuts =  0 [   0]
  --> max chng: dpmx=   7.3651E-01 dtmpmx=   9.9655E-02

== TH FLOW =====================================================================
 Step     44 Time=  1.60000E+00 Dt=  5.00000E-02 [y] snes_conv_reason:   11
  newton =   1 [      51] linear =   115 [      5887] cuts =  0 [   0]
  --> max chng: dpmx=   7.6210E-01 dtmpmx=   9.6586E-02

== TH FLOW =====================================================================
 Step     45 Time=  1.65000E+00 Dt=  5.00000E-02 [y] snes_conv_reason:   11
  newton =   1 [      52] linear =   112 [      5999] cuts =  0 [   0]
  --> max chng: dpmx=   7.8789E-01 dtmpmx=   9.3691E-02

== TH FLOW =====================================================================
 Step     46 Time=  1.70000E+00 Dt=  5.00000E-02 [y] snes_conv_reason:   11
  newton =   1 [      53] linear =   106 [      6105] cuts =  0 [   0]
  --> max chng: dpmx=   8.1369E-01 dtmpmx=   9.0955E-02

== TH FLOW =====================================================================
 Step     47 Time=  1.75000E+00 Dt=  5.00000E-02 [y] snes_conv_reason:   11
  newton =   1 [      54] linear =   107 [      6212] cuts =  0 [   0]
  --> max chng: dpmx=   8.3967E-01 dtmpmx=   8.8366E-02

== TH FLOW =====================================================================
 Step     48 Time=  1.80000E+00 Dt=  5.00000E-02 [y] snes_conv_reason:   11
  newton =   1 [      55] linear =   113 [      6325] cuts =  0 [   0]
  --> max chng: dpmx=   8.6584E-01 dtmpmx=   8.5918E-02

== TH FLOW =====================================================================
 Step     49 Time=  1.85000E+00 Dt=  5.00000E-02 [y] snes_conv_reason:   11
  newton =   1 [      56] linear =   109 [      6434] cuts =  0 [   0]
  --> max chng: dpmx=   8.9173E-01 dtmpmx=   8.3596E-02

== TH FLOW =====================================================================
 Step     50 Time=  1.90000E+00 Dt=  5.00000E-02 [y] snes_conv_reason:   11
  newton =   1 [      57] linear =   109 [      6543] cuts =  0 [   0]
  --> max chng: dpmx=   9.1795E-01 dtmpmx=   8.1388E-02

== TH FLOW =====================================================================
 Step     51 Time=  1.95000E+00 Dt=  5.00000E-02 [y] snes_conv_reason:   11
  newton =   1 [      58] linear =   113 [      6656] cuts =  0 [   0]
  --> max chng: dpmx=   9.4384E-01 dtmpmx=   7.9287E-02

== TH FLOW =====================================================================
 Step     52 Time=  2.00000E+00 Dt=  5.00000E-02 [y] snes_conv_reason:   11
  newton =   1 [      59] linear =   105 [      6761] cuts =  0 [   0]
  --> max chng: dpmx=   9.6946E-01 dtmpmx=   7.7285E-02

== TH FLOW =====================================================================
 Step     53 Time=  2.05000E+00 Dt=  5.00000E-02 [y] snes_conv_reason:   11
  newton =   1 [      60] linear =   108 [      6869] cuts =  0 [   0]
  --> max chng: dpmx=   9.9461E-01 dtmpmx=   7.5375E-02

== TH FLOW =====================================================================
 Step     54 Time=  2.10000E+00 Dt=  5.00000E-02 [y] snes_conv_reason:    3
  newton =   1 [      61] linear =   109 [      6978] cuts =  0 [   0]
  --> max chng: dpmx=   1.0192E+00 dtmpmx=   7.3552E-02

== TH FLOW =====================================================================
 Step     55 Time=  2.15000E+00 Dt=  5.00000E-02 [y] snes_conv_reason:    3
  newton =   1 [      62] linear =   116 [      7094] cuts =  0 [   0]
  --> max chng: dpmx=   1.0428E+00 dtmpmx=   7.1810E-02

== TH FLOW =====================================================================
 Step     56 Time=  2.20000E+00 Dt=  5.00000E-02 [y] snes_conv_reason:    3
  newton =   1 [      63] linear =   109 [      7203] cuts =  0 [   0]
  --> max chng: dpmx=   1.0653E+00 dtmpmx=   7.0143E-02

== TH FLOW =====================================================================
 Step     57 Time=  2.25000E+00 Dt=  5.00000E-02 [y] snes_conv_reason:    3
  newton =   1 [      64] linear =   111 [      7314] cuts =  0 [   0]
  --> max chng: dpmx=   1.0859E+00 dtmpmx=   6.8548E-02

== TH FLOW =====================================================================
 Step     58 Time=  2.30000E+00 Dt=  5.00000E-02 [y] snes_conv_reason:    3
  newton =   1 [      65] linear =    97 [      7411] cuts =  0 [   0]
  --> max chng: dpmx=   1.1045E+00 dtmpmx=   6.7018E-02

== TH FLOW =====================================================================
 Step     59 Time=  2.35000E+00 Dt=  5.00000E-02 [y] snes_conv_reason:    3
  newton =   1 [      66] linear =   110 [      7521] cuts =  0 [   0]
  --> max chng: dpmx=   1.1199E+00 dtmpmx=   6.5552E-02

== TH FLOW =====================================================================
 Step     60 Time=  2.40000E+00 Dt=  5.00000E-02 [y] snes_conv_reason:    3
  newton =   1 [      67] linear =   103 [      7624] cuts =  0 [   0]
  --> max chng: dpmx=   1.1321E+00 dtmpmx=   6.4144E-02

== TH FLOW =====================================================================
 Step     61 Time=  2.45000E+00 Dt=  5.00000E-02 [y] snes_conv_reason:    3
  newton =   1 [      68] linear =   102 [      7726] cuts =  0 [   0]
  --> max chng: dpmx=   1.1396E+00 dtmpmx=   6.2793E-02

== TH FLOW =====================================================================
 Step     62 Time=  2.50000E+00 Dt=  5.00000E-02 [y] snes_conv_reason:    3
  newton =   1 [      69] linear =   109 [      7835] cuts =  0 [   0]
  --> max chng: dpmx=   1.1428E+00 dtmpmx=   6.1493E-02

== TH FLOW =====================================================================
 Step     63 Time=  2.55000E+00 Dt=  5.00000E-02 [y] snes_conv_reason:    3
  newton =   1 [      70] linear =   106 [      7941] cuts =  0 [   0]
  --> max chng: dpmx=   1.1398E+00 dtmpmx=   6.0243E-02

== TH FLOW =====================================================================
 Step     64 Time=  2.60000E+00 Dt=  5.00000E-02 [y] snes_conv_reason:    3
  newton =   1 [      71] linear =   109 [      8050] cuts =  0 [   0]
  --> max chng: dpmx=   1.1306E+00 dtmpmx=   5.9040E-02

== TH FLOW =====================================================================
 Step     65 Time=  2.65000E+00 Dt=  5.00000E-02 [y] snes_conv_reason:    3
  newton =   1 [      72] linear =   112 [      8162] cuts =  0 [   0]
  --> max chng: dpmx=   1.1145E+00 dtmpmx=   5.7882E-02

== TH FLOW =====================================================================
 Step     66 Time=  2.70000E+00 Dt=  5.00000E-02 [y] snes_conv_reason:    3
  newton =   1 [      73] linear =   109 [      8271] cuts =  0 [   0]
  --> max chng: dpmx=   1.0912E+00 dtmpmx=   5.6765E-02

== TH FLOW =====================================================================
 Step     67 Time=  2.75000E+00 Dt=  5.00000E-02 [y] snes_conv_reason:    3
  newton =   1 [      74] linear =   117 [      8388] cuts =  0 [   0]
  --> max chng: dpmx=   1.0605E+00 dtmpmx=   5.5691E-02

== TH FLOW =====================================================================
 Step     68 Time=  2.80000E+00 Dt=  5.00000E-02 [y] snes_conv_reason:    3
  newton =   1 [      75] linear =   114 [      8502] cuts =  0 [   0]
  --> max chng: dpmx=   1.0223E+00 dtmpmx=   5.4655E-02

== TH FLOW =====================================================================
 Step     69 Time=  2.85000E+00 Dt=  5.00000E-02 [y] snes_conv_reason:   11
  newton =   1 [      76] linear =   114 [      8616] cuts =  0 [   0]
  --> max chng: dpmx=   9.7752E-01 dtmpmx=   5.3655E-02

== TH FLOW =====================================================================
 Step     70 Time=  2.90000E+00 Dt=  5.00000E-02 [y] snes_conv_reason:   11
  newton =   1 [      77] linear =   114 [      8730] cuts =  0 [   0]
  --> max chng: dpmx=   9.2616E-01 dtmpmx=   5.2689E-02

== TH FLOW =====================================================================
 Step     71 Time=  2.95000E+00 Dt=  5.00000E-02 [y] snes_conv_reason:   11
  newton =   1 [      78] linear =   117 [      8847] cuts =  0 [   0]
  --> max chng: dpmx=   8.6946E-01 dtmpmx=   5.1756E-02

== TH FLOW =====================================================================
 Step     72 Time=  3.00000E+00 Dt=  5.00000E-02 [y] snes_conv_reason:   11
  newton =   1 [      79] linear =   115 [      8962] cuts =  0 [   0]
  --> max chng: dpmx=   8.0824E-01 dtmpmx=   5.0853E-02

== TH FLOW =====================================================================
 Step     73 Time=  3.05000E+00 Dt=  5.00000E-02 [y] snes_conv_reason:   11
  newton =   1 [      80] linear =   114 [      9076] cuts =  0 [   0]
  --> max chng: dpmx=   7.4379E-01 dtmpmx=   4.9979E-02

== TH FLOW =====================================================================
 Step     74 Time=  3.10000E+00 Dt=  5.00000E-02 [y] snes_conv_reason:   11
  newton =   1 [      81] linear =   110 [      9186] cuts =  0 [   0]
  --> max chng: dpmx=   6.7789E-01 dtmpmx=   4.9133E-02

== TH FLOW =====================================================================
 Step     75 Time=  3.15000E+00 Dt=  5.00000E-02 [y] snes_conv_reason:   11
  newton =   1 [      82] linear =   114 [      9300] cuts =  0 [   0]
  --> max chng: dpmx=   6.1109E-01 dtmpmx=   4.7948E-02

== TH FLOW =====================================================================
 Step     76 Time=  3.20000E+00 Dt=  5.00000E-02 [y] snes_conv_reason:   11
  newton =   1 [      83] linear =   118 [      9418] cuts =  0 [   0]
  --> max chng: dpmx=   5.4534E-01 dtmpmx=   4.6144E-02

== TH FLOW =====================================================================
 Step     77 Time=  3.25000E+00 Dt=  5.00000E-02 [y] snes_conv_reason:   11
  newton =   1 [      84] linear =   116 [      9534] cuts =  0 [   0]
  --> max chng: dpmx=   4.8137E-01 dtmpmx=   4.3856E-02

== TH FLOW =====================================================================
 Step     78 Time=  3.30000E+00 Dt=  5.00000E-02 [y] snes_conv_reason:   11
  newton =   1 [      85] linear =   119 [      9653] cuts =  0 [   0]
  --> max chng: dpmx=   4.2056E-01 dtmpmx=   4.1075E-02

== TH FLOW =====================================================================
 Step     79 Time=  3.35000E+00 Dt=  5.00000E-02 [y] snes_conv_reason:   11
  newton =   1 [      86] linear =   113 [      9766] cuts =  0 [   0]
  --> max chng: dpmx=   3.6344E-01 dtmpmx=   3.7926E-02

== TH FLOW =====================================================================
 Step     80 Time=  3.40000E+00 Dt=  5.00000E-02 [y] snes_conv_reason:   11
  newton =   1 [      87] linear =   116 [      9882] cuts =  0 [   0]
  --> max chng: dpmx=   3.1088E-01 dtmpmx=   3.4536E-02

== TH FLOW =====================================================================
 Step     81 Time=  3.45000E+00 Dt=  5.00000E-02 [y] snes_conv_reason:   11
  newton =   1 [      88] linear =   118 [     10000] cuts =  0 [   0]
  --> max chng: dpmx=   2.6306E-01 dtmpmx=   3.1025E-02

== TH FLOW =====================================================================
 Step     82 Time=  3.50000E+00 Dt=  5.00000E-02 [y] snes_conv_reason:   11
  newton =   1 [      89] linear =   114 [     10114] cuts =  0 [   0]
  --> max chng: dpmx=   2.2030E-01 dtmpmx=   2.7507E-02

== TH FLOW =====================================================================
 Step     83 Time=  3.55000E+00 Dt=  5.00000E-02 [y] snes_conv_reason:   11
  newton =   1 [      90] linear =   121 [     10235] cuts =  0 [   0]
  --> max chng: dpmx=   1.8260E-01 dtmpmx=   2.4077E-02

== TH FLOW =====================================================================
 Step     84 Time=  3.60000E+00 Dt=  5.00000E-02 [y] snes_conv_reason:   11
  newton =   1 [      91] linear =   117 [     10352] cuts =  0 [   0]
  --> max chng: dpmx=   1.4976E-01 dtmpmx=   2.0813E-02

== TH FLOW =====================================================================
 Step     85 Time=  3.65000E+00 Dt=  5.00000E-02 [y] snes_conv_reason:   11
  newton =   1 [      92] linear =   118 [     10470] cuts =  0 [   0]
  --> max chng: dpmx=   1.2160E-01 dtmpmx=   1.7774E-02

== TH FLOW =====================================================================
 Step     86 Time=  3.70000E+00 Dt=  5.00000E-02 [y] snes_conv_reason:   11
  newton =   1 [      93] linear =   120 [     10590] cuts =  0 [   0]
  --> max chng: dpmx=   9.7752E-02 dtmpmx=   1.4998E-02

== TH FLOW =====================================================================
 Step     87 Time=  3.75000E+00 Dt=  5.00000E-02 [y] snes_conv_reason:   11
  newton =   1 [      94] linear =   120 [     10710] cuts =  0 [   0]
  --> max chng: dpmx=   7.7766E-02 dtmpmx=   1.2510E-02

== TH FLOW =====================================================================
 Step     88 Time=  3.80000E+00 Dt=  5.00000E-02 [y] snes_conv_reason:   11
  newton =   1 [      95] linear =   120 [     10830] cuts =  0 [   0]
  --> max chng: dpmx=   6.1258E-02 dtmpmx=   1.0317E-02

== TH FLOW =====================================================================
 Step     89 Time=  3.85000E+00 Dt=  5.00000E-02 [y] snes_conv_reason:   11
  newton =   1 [      96] linear =   121 [     10951] cuts =  0 [   0]
  --> max chng: dpmx=   4.7766E-02 dtmpmx=   8.4131E-03

== TH FLOW =====================================================================
 Step     90 Time=  3.90000E+00 Dt=  5.00000E-02 [y] snes_conv_reason:   11
  newton =   1 [      97] linear =   123 [     11074] cuts =  0 [   0]
  --> max chng: dpmx=   3.6875E-02 dtmpmx=   6.7857E-03

== TH FLOW =====================================================================
 Step     91 Time=  3.95000E+00 Dt=  5.00000E-02 [y] snes_conv_reason:   11
  newton =   1 [      98] linear =   120 [     11194] cuts =  0 [   0]
  --> max chng: dpmx=   2.8166E-02 dtmpmx=   5.4139E-03

== TH FLOW =====================================================================
 Step     92 Time=  4.00000E+00 Dt=  5.00000E-02 [y] snes_conv_reason:   11
  newton =   1 [      99] linear =   121 [     11315] cuts =  0 [   0]
  --> max chng: dpmx=   2.1302E-02 dtmpmx=   4.2732E-03

== TH FLOW =====================================================================
 Step     93 Time=  4.05000E+00 Dt=  5.00000E-02 [y] snes_conv_reason:   11
  newton =   1 [     100] linear =   122 [     11437] cuts =  0 [   0]
  --> max chng: dpmx=   1.5922E-02 dtmpmx=   3.3367E-03

== TH FLOW =====================================================================
 Step     94 Time=  4.10000E+00 Dt=  5.00000E-02 [y] snes_conv_reason:   11
  newton =   1 [     101] linear =   124 [     11561] cuts =  0 [   0]
  --> max chng: dpmx=   1.1777E-02 dtmpmx=   2.5774E-03

== TH FLOW =====================================================================
 Step     95 Time=  4.15000E+00 Dt=  5.00000E-02 [y] snes_conv_reason:   11
  newton =   1 [     102] linear =   127 [     11688] cuts =  0 [   0]
  --> max chng: dpmx=   8.5984E-03 dtmpmx=   1.9691E-03

== TH FLOW =====================================================================
 Step     96 Time=  4.20000E+00 Dt=  5.00000E-02 [y] snes_conv_reason:   11
  newton =   1 [     103] linear =   123 [     11811] cuts =  0 [   0]
  --> max chng: dpmx=   6.1972E-03 dtmpmx=   1.4875E-03

== TH FLOW =====================================================================
 Step     97 Time=  4.25000E+00 Dt=  5.00000E-02 [y] snes_conv_reason:   11
  newton =   1 [     104] linear =   121 [     11932] cuts =  0 [   0]
  --> max chng: dpmx=   4.3967E-03 dtmpmx=   1.1103E-03

== TH FLOW =====================================================================
 Step     98 Time=  4.30000E+00 Dt=  5.00000E-02 [y] snes_conv_reason:   11
  newton =   1 [     105] linear =   131 [     12063] cuts =  0 [   0]
  --> max chng: dpmx=   3.0689E-03 dtmpmx=   8.1810E-04

== TH FLOW =====================================================================
 Step     99 Time=  4.35000E+00 Dt=  5.00000E-02 [y] snes_conv_reason:   11
  newton =   1 [     106] linear =   123 [     12186] cuts =  0 [   0]
  --> max chng: dpmx=   2.0962E-03 dtmpmx=   5.9417E-04

== TH FLOW =====================================================================
 Step    100 Time=  4.40000E+00 Dt=  5.00000E-02 [y] snes_conv_reason:   11
  newton =   1 [     107] linear =   122 [     12308] cuts =  0 [   0]
  --> max chng: dpmx=   1.3977E-03 dtmpmx=   4.2429E-04

== TH FLOW =====================================================================
 Step    101 Time=  4.45000E+00 Dt=  5.00000E-02 [y] snes_conv_reason:   11
  newton =   1 [     108] linear =   121 [     12429] cuts =  0 [   0]
  --> max chng: dpmx=   9.0313E-04 dtmpmx=   2.9670E-04

== TH FLOW =====================================================================
 Step    102 Time=  4.50000E+00 Dt=  5.00000E-02 [y] snes_conv_reason:   11
  newton =   1 [     109] linear =   122 [     12551] cuts =  0 [   0]
  --> max chng: dpmx=   1.0127E-03 dtmpmx=   2.0179E-04

== TH FLOW =====================================================================
 Step    103 Time=  4.55000E+00 Dt=  5.00000E-02 [y] snes_conv_reason:   11
  newton =   1 [     110] linear =   119 [     12670] cuts =  0 [   0]
  --> max chng: dpmx=   1.1369E-03 dtmpmx=   1.3186E-04

== TH FLOW =====================================================================
 Step    104 Time=  4.60000E+00 Dt=  5.00000E-02 [y] snes_conv_reason:   11
  newton =   1 [     111] linear =   119 [     12789] cuts =  0 [   0]
  --> max chng: dpmx=   1.2202E-03 dtmpmx=   8.0814E-05

== TH FLOW =====================================================================
 Step    105 Time=  4.65000E+00 Dt=  5.00000E-02 [y] snes_conv_reason:   11
  newton =   1 [     112] linear =   116 [     12905] cuts =  0 [   0]
  --> max chng: dpmx=   1.2706E-03 dtmpmx=   4.4212E-05

== TH FLOW =====================================================================
 Step    106 Time=  4.70000E+00 Dt=  5.00000E-02 [y] snes_conv_reason:   11
  newton =   1 [     113] linear =   109 [     13014] cuts =  0 [   0]
  --> max chng: dpmx=   1.2964E-03 dtmpmx=   4.3936E-05

== TH FLOW =====================================================================
 Step    107 Time=  4.75000E+00 Dt=  5.00000E-02 [y] snes_conv_reason:   11
  newton =   1 [     114] linear =   113 [     13127] cuts =  0 [   0]
  --> max chng: dpmx=   1.3035E-03 dtmpmx=   4.3655E-05

== TH FLOW =====================================================================
 Step    108 Time=  4.80000E+00 Dt=  5.00000E-02 [y] snes_conv_reason:   11
  newton =   1 [     115] linear =   109 [     13236] cuts =  0 [   0]
  --> max chng: dpmx=   1.2960E-03 dtmpmx=   4.3367E-05

== TH FLOW =====================================================================
 Step    109 Time=  4.85000E+00 Dt=  5.00000E-02 [y] snes_conv_reason:   11
  newton =   1 [     116] linear =   107 [     13343] cuts =  0 [   0]
  --> max chng: dpmx=   1.2778E-03 dtmpmx=   4.3076E-05

== TH FLOW =====================================================================
 Step    110 Time=  4.90000E+00 Dt=  5.00000E-02 [y] snes_conv_reason:   11
  newton =   1 [     117] linear =   110 [     13453] cuts =  0 [   0]
  --> max chng: dpmx=   1.2514E-03 dtmpmx=   4.2781E-05

== TH FLOW =====================================================================
 Step    111 Time=  4.95000E+00 Dt=  5.00000E-02 [y] snes_conv_reason:   11
  newton =   1 [     118] linear =   106 [     13559] cuts =  0 [   0]
  --> max chng: dpmx=   1.2189E-03 dtmpmx=   4.2479E-05

== TH FLOW =====================================================================
 Step    112 Time=  5.00000E+00 Dt=  5.00000E-02 [y] snes_conv_reason:   11
  newton =   1 [     119] linear =   104 [     13663] cuts =  0 [   0]
  --> max chng: dpmx=   1.1815E-03 dtmpmx=   4.2175E-05

== TH FLOW =====================================================================
 Step    113 Time=  5.05000E+00 Dt=  5.00000E-02 [y] snes_conv_reason:   11
  newton =   1 [     120] linear =   108 [     13771] cuts =  0 [   0]
  --> max chng: dpmx=   1.1406E-03 dtmpmx=   4.1866E-05

== TH FLOW =====================================================================
 Step    114 Time=  5.10000E+00 Dt=  5.00000E-02 [y] snes_conv_reason:   11
  newton =   1 [     121] linear =    94 [     13865] cuts =  0 [   0]
  --> max chng: dpmx=   1.0966E-03 dtmpmx=   4.1552E-05

== TH FLOW =====================================================================
 Step    115 Time=  5.15000E+00 Dt=  5.00000E-02 [y] snes_conv_reason:   11
  newton =   1 [     122] linear =    98 [     13963] cuts =  0 [   0]
  --> max chng: dpmx=   1.0505E-03 dtmpmx=   4.1237E-05

== TH FLOW =====================================================================
 Step    116 Time=  5.20000E+00 Dt=  5.00000E-02 [y] snes_conv_reason:   11
  newton =   1 [     123] linear =   104 [     14067] cuts =  0 [   0]
  --> max chng: dpmx=   1.0027E-03 dtmpmx=   4.0914E-05

== TH FLOW =====================================================================
 Step    117 Time=  5.25000E+00 Dt=  5.00000E-02 [y] snes_conv_reason:   11
  newton =   1 [     124] linear =   106 [     14173] cuts =  0 [   0]
  --> max chng: dpmx=   9.5331E-04 dtmpmx=   4.0550E-05

== TH FLOW =====================================================================
 Step    118 Time=  5.30000E+00 Dt=  5.00000E-02 [y] snes_conv_reason:   11
  newton =   1 [     125] linear =   110 [     14283] cuts =  0 [   0]
  --> max chng: dpmx=   9.0363E-04 dtmpmx=   3.9973E-05

== TH FLOW =====================================================================
 Step    119 Time=  5.35000E+00 Dt=  5.00000E-02 [y] snes_conv_reason:   11
  newton =   1 [     126] linear =   108 [     14391] cuts =  0 [   0]
  --> max chng: dpmx=   8.5326E-04 dtmpmx=   3.9200E-05

== TH FLOW =====================================================================
 Step    120 Time=  5.40000E+00 Dt=  5.00000E-02 [y] snes_conv_reason:   11
  newton =   1 [     127] linear =   109 [     14500] cuts =  0 [   0]
  --> max chng: dpmx=   8.0262E-04 dtmpmx=   3.8262E-05

== TH FLOW =====================================================================
 Step    121 Time=  5.45000E+00 Dt=  5.00000E-02 [y] snes_conv_reason:   11
  newton =   1 [     128] linear =   112 [     14612] cuts =  0 [   0]
  --> max chng: dpmx=   7.5242E-04 dtmpmx=   3.7183E-05

== TH FLOW =====================================================================
 Step    122 Time=  5.50000E+00 Dt=  5.00000E-02 [y] snes_conv_reason:   11
  newton =   1 [     129] linear =   109 [     14721] cuts =  0 [   0]
  --> max chng: dpmx=   7.0237E-04 dtmpmx=   3.6012E-05

== TH FLOW =====================================================================
 Step    123 Time=  5.55000E+00 Dt=  5.00000E-02 [y] snes_conv_reason:   11
  newton =   1 [     130] linear =   113 [     14834] cuts =  0 [   0]
  --> max chng: dpmx=   6.5336E-04 dtmpmx=   3.4725E-05

== TH FLOW =====================================================================
 Step    124 Time=  5.60000E+00 Dt=  5.00000E-02 [y] snes_conv_reason:   11
  newton =   1 [     131] linear =   113 [     14947] cuts =  0 [   0]
  --> max chng: dpmx=   6.0516E-04 dtmpmx=   3.3339E-05

== TH FLOW =====================================================================
 Step    125 Time=  5.65000E+00 Dt=  5.00000E-02 [y] snes_conv_reason:   11
  newton =   1 [     132] linear =   110 [     15057] cuts =  0 [   0]
  --> max chng: dpmx=   5.5849E-04 dtmpmx=   3.1867E-05

== TH FLOW =====================================================================
 Step    126 Time=  5.70000E+00 Dt=  5.00000E-02 [y] snes_conv_reason:   11
  newton =   1 [     133] linear =   116 [     15173] cuts =  0 [   0]
  --> max chng: dpmx=   5.1298E-04 dtmpmx=   3.0324E-05

== TH FLOW =====================================================================
 Step    127 Time=  5.75000E+00 Dt=  5.00000E-02 [y] snes_conv_reason:   11
  newton =   1 [     134] linear =   116 [     15289] cuts =  0 [   0]
  --> max chng: dpmx=   4.6941E-04 dtmpmx=   2.8723E-05

== TH FLOW =====================================================================
 Step    128 Time=  5.80000E+00 Dt=  5.00000E-02 [y] snes_conv_reason:   11
  newton =   1 [     135] linear =   110 [     15399] cuts =  0 [   0]
  --> max chng: dpmx=   4.2774E-04 dtmpmx=   2.7081E-05

== TH FLOW =====================================================================
 Step    129 Time=  5.85000E+00 Dt=  5.00000E-02 [y] snes_conv_reason:   11
  newton =   1 [     136] linear =   115 [     15514] cuts =  0 [   0]
  --> max chng: dpmx=   3.8787E-04 dtmpmx=   2.5412E-05

== TH FLOW =====================================================================
 Step    130 Time=  5.90000E+00 Dt=  5.00000E-02 [y] snes_conv_reason:   11
  newton =   1 [     137] linear =   116 [     15630] cuts =  0 [   0]
  --> max chng: dpmx=   3.5033E-04 dtmpmx=   2.3731E-05

== TH FLOW =====================================================================
 Step    131 Time=  5.95000E+00 Dt=  5.00000E-02 [y] snes_conv_reason:   11
  newton =   1 [     138] linear =   115 [     15745] cuts =  0 [   0]
  --> max chng: dpmx=   3.1499E-04 dtmpmx=   2.2053E-05

== TH FLOW =====================================================================
 Step    132 Time=  6.00000E+00 Dt=  5.00000E-02 [y] snes_conv_reason:   11
  newton =   1 [     139] linear =   116 [     15861] cuts =  0 [   0]
  --> max chng: dpmx=   2.8189E-04 dtmpmx=   2.0392E-05

== TH FLOW =====================================================================
 Step    133 Time=  6.05000E+00 Dt=  5.00000E-02 [y] snes_conv_reason:   11
  newton =   1 [     140] linear =   115 [     15976] cuts =  0 [   0]
  --> max chng: dpmx=   2.5115E-04 dtmpmx=   1.8761E-05

== TH FLOW =====================================================================
 Step    134 Time=  6.10000E+00 Dt=  5.00000E-02 [y] snes_conv_reason:   11
  newton =   1 [     141] linear =   116 [     16092] cuts =  0 [   0]
  --> max chng: dpmx=   2.2266E-04 dtmpmx=   1.7173E-05

== TH FLOW =====================================================================
 Step    135 Time=  6.15000E+00 Dt=  5.00000E-02 [y] snes_conv_reason:   11
  newton =   1 [     142] linear =   115 [     16207] cuts =  0 [   0]
  --> max chng: dpmx=   1.9653E-04 dtmpmx=   1.5638E-05

== TH FLOW =====================================================================
 Step    136 Time=  6.20000E+00 Dt=  5.00000E-02 [y] snes_conv_reason:   11
  newton =   1 [     143] linear =   118 [     16325] cuts =  0 [   0]
  --> max chng: dpmx=   1.7261E-04 dtmpmx=   1.4167E-05

== TH FLOW =====================================================================
 Step    137 Time=  6.25000E+00 Dt=  5.00000E-02 [y] snes_conv_reason:   11
  newton =   1 [     144] linear =   118 [     16443] cuts =  0 [   0]
  --> max chng: dpmx=   1.5082E-04 dtmpmx=   1.2766E-05

== TH FLOW =====================================================================
 Step    138 Time=  6.30000E+00 Dt=  5.00000E-02 [y] snes_conv_reason:   11
  newton =   1 [     145] linear =   116 [     16559] cuts =  0 [   0]
  --> max chng: dpmx=   1.3119E-04 dtmpmx=   1.1443E-05

== TH FLOW =====================================================================
 Step    139 Time=  6.35000E+00 Dt=  5.00000E-02 [y] snes_conv_reason:   11
  newton =   1 [     146] linear =   116 [     16675] cuts =  0 [   0]
  --> max chng: dpmx=   1.1350E-04 dtmpmx=   1.0203E-05

== TH FLOW =====================================================================
 Step    140 Time=  6.40000E+00 Dt=  5.00000E-02 [y] snes_conv_reason:   11
  newton =   1 [     147] linear =   119 [     16794] cuts =  0 [   0]
  --> max chng: dpmx=   9.7750E-05 dtmpmx=   9.0480E-06

== TH FLOW =====================================================================
 Step    141 Time=  6.45000E+00 Dt=  5.00000E-02 [y] snes_conv_reason:   11
  newton =   1 [     148] linear =   118 [     16912] cuts =  0 [   0]
  --> max chng: dpmx=   8.3706E-05 dtmpmx=   7.9803E-06

== TH FLOW =====================================================================
 Step    142 Time=  6.50000E+00 Dt=  5.00000E-02 [y] snes_conv_reason:   11
  newton =   1 [     149] linear =   119 [     17031] cuts =  0 [   0]
  --> max chng: dpmx=   7.1311E-05 dtmpmx=   7.0000E-06

== TH FLOW =====================================================================
 Step    143 Time=  6.55000E+00 Dt=  5.00000E-02 [y] snes_conv_reason:   11
  newton =   1 [     150] linear =   120 [     17151] cuts =  0 [   0]
  --> max chng: dpmx=   6.0428E-05 dtmpmx=   6.1062E-06

== TH FLOW =====================================================================
 Step    144 Time=  6.60000E+00 Dt=  5.00000E-02 [y] snes_conv_reason:   11
  newton =   1 [     151] linear =   118 [     17269] cuts =  0 [   0]
  --> max chng: dpmx=   5.0923E-05 dtmpmx=   5.2968E-06

== TH FLOW =====================================================================
 Step    145 Time=  6.65000E+00 Dt=  5.00000E-02 [y] snes_conv_reason:   11
  newton =   1 [     152] linear =   119 [     17388] cuts =  0 [   0]
  --> max chng: dpmx=   4.2682E-05 dtmpmx=   4.5687E-06

== TH FLOW =====================================================================
 Step    146 Time=  6.70000E+00 Dt=  5.00000E-02 [y] snes_conv_reason:   11
  newton =   1 [     153] linear =   117 [     17505] cuts =  0 [   0]
  --> max chng: dpmx=   3.5547E-05 dtmpmx=   3.9181E-06

== TH FLOW =====================================================================
 Step    147 Time=  6.75000E+00 Dt=  5.00000E-02 [y] snes_conv_reason:   11
  newton =   1 [     154] linear =   121 [     17626] cuts =  0 [   0]
  --> max chng: dpmx=   2.9431E-05 dtmpmx=   3.3405E-06

== TH FLOW =====================================================================
 Step    148 Time=  6.80000E+00 Dt=  5.00000E-02 [y] snes_conv_reason:   11
  newton =   1 [     155] linear =   118 [     17744] cuts =  0 [   0]
  --> max chng: dpmx=   2.4215E-05 dtmpmx=   2.8312E-06

== TH FLOW =====================================================================
 Step    149 Time=  6.85000E+00 Dt=  5.00000E-02 [y] snes_conv_reason:   11
  newton =   1 [     156] linear =   120 [     17864] cuts =  0 [   0]
  --> max chng: dpmx=   1.9780E-05 dtmpmx=   2.3848E-06

== TH FLOW =====================================================================
 Step    150 Time=  6.90000E+00 Dt=  5.00000E-02 [y] snes_conv_reason:   11
  newton =   1 [     157] linear =   120 [     17984] cuts =  0 [   0]
  --> max chng: dpmx=   1.6052E-05 dtmpmx=   1.9961E-06

== TH FLOW =====================================================================
 Step    151 Time=  6.95000E+00 Dt=  5.00000E-02 [y] snes_conv_reason:   11
  newton =   1 [     158] linear =   122 [     18106] cuts =  0 [   0]
  --> max chng: dpmx=   1.2923E-05 dtmpmx=   1.6598E-06

== TH FLOW =====================================================================
 Step    152 Time=  7.00000E+00 Dt=  5.00000E-02 [y] snes_conv_reason:   11
  newton =   1 [     159] linear =   120 [     18226] cuts =  0 [   0]
  --> max chng: dpmx=   1.0317E-05 dtmpmx=   1.3707E-06

== TH FLOW =====================================================================
 Step    153 Time=  7.05000E+00 Dt=  5.00000E-02 [y] snes_conv_reason:   11
  newton =   1 [     160] linear =   119 [     18345] cuts =  0 [   0]
  --> max chng: dpmx=   8.1584E-06 dtmpmx=   1.1237E-06

== TH FLOW =====================================================================
 Step    154 Time=  7.10000E+00 Dt=  5.00000E-02 [y] snes_conv_reason:   11
  newton =   1 [     161] linear =   123 [     18468] cuts =  0 [   0]
  --> max chng: dpmx=   6.3876E-06 dtmpmx=   9.1409E-07

== TH FLOW =====================================================================
 Step    155 Time=  7.15000E+00 Dt=  5.00000E-02 [y] snes_conv_reason:   11
  newton =   1 [     162] linear =   126 [     18594] cuts =  0 [   0]
  --> max chng: dpmx=   4.9439E-06 dtmpmx=   7.3721E-07

== TH FLOW =====================================================================
 Step    156 Time=  7.20000E+00 Dt=  5.00000E-02 [y] snes_conv_reason:   11
  newton =   1 [     163] linear =   122 [     18716] cuts =  0 [   0]
  --> max chng: dpmx=   3.7749E-06 dtmpmx=   5.8894E-07

== TH FLOW =====================================================================
 Step    157 Time=  7.25000E+00 Dt=  5.00000E-02 [y] snes_conv_reason:   11
  newton =   1 [     164] linear =   122 [     18838] cuts =  0 [   0]
  --> max chng: dpmx=   2.8381E-06 dtmpmx=   4.6552E-07

== TH FLOW =====================================================================
 Step    158 Time=  7.30000E+00 Dt=  5.00000E-02 [y] snes_conv_reason:   11
  newton =   1 [     165] linear =   125 [     18963] cuts =  0 [   0]
  --> max chng: dpmx=   2.0942E-06 dtmpmx=   3.6338E-07

== TH FLOW =====================================================================
 Step    159 Time=  7.35000E+00 Dt=  5.00000E-02 [y] snes_conv_reason:   11
  newton =   1 [     166] linear =   122 [     19085] cuts =  0 [   0]
  --> max chng: dpmx=   1.5128E-06 dtmpmx=   2.7945E-07

== TH FLOW =====================================================================
 Step    160 Time=  7.40000E+00 Dt=  5.00000E-02 [y] snes_conv_reason:   11
  newton =   1 [     167] linear =   121 [     19206] cuts =  0 [   0]
  --> max chng: dpmx=   1.0632E-06 dtmpmx=   2.1102E-07

== TH FLOW =====================================================================
 Step    161 Time=  7.45000E+00 Dt=  5.00000E-02 [y] snes_conv_reason:   11
  newton =   1 [     168] linear =   124 [     19330] cuts =  0 [   0]
  --> max chng: dpmx=   7.2282E-07 dtmpmx=   1.5546E-07

== TH FLOW =====================================================================
 Step    162 Time=  7.50000E+00 Dt=  5.00000E-02 [y] snes_conv_reason:   11
  newton =   1 [     169] linear =   120 [     19450] cuts =  0 [   0]
  --> max chng: dpmx=   6.3109E-07 dtmpmx=   1.1091E-07

== TH FLOW =====================================================================
 Step    163 Time=  7.55000E+00 Dt=  5.00000E-02 [y] snes_conv_reason:   11
  newton =   1 [     170] linear =   123 [     19573] cuts =  0 [   0]
  --> max chng: dpmx=   7.3423E-07 dtmpmx=   7.5458E-08

== TH FLOW =====================================================================
 Step    164 Time=  7.60000E+00 Dt=  5.00000E-02 [y] snes_conv_reason:   11
  newton =   1 [     171] linear =   119 [     19692] cuts =  0 [   0]
  --> max chng: dpmx=   8.0548E-07 dtmpmx=   4.7404E-08

== TH FLOW =====================================================================
 Step    165 Time=  7.65000E+00 Dt=  5.00000E-02 [y] snes_conv_reason:   11
  newton =   1 [     172] linear =   115 [     19807] cuts =  0 [   0]
  --> max chng: dpmx=   8.4937E-07 dtmpmx=   3.6760E-08

== TH FLOW =====================================================================
 Step    166 Time=  7.70000E+00 Dt=  5.00000E-02 [y] snes_conv_reason:   11
  newton =   1 [     173] linear =   113 [     19920] cuts =  0 [   0]
  --> max chng: dpmx=   8.7137E-07 dtmpmx=   3.6237E-08

== TH FLOW =====================================================================
 Step    167 Time=  7.75000E+00 Dt=  5.00000E-02 [y] snes_conv_reason:   11
  newton =   1 [     174] linear =   110 [     20030] cuts =  0 [   0]
  --> max chng: dpmx=   8.7521E-07 dtmpmx=   3.5737E-08

== TH FLOW =====================================================================
 Step    168 Time=  7.80000E+00 Dt=  5.00000E-02 [y] snes_conv_reason:   11
  newton =   1 [     175] linear =   115 [     20145] cuts =  0 [   0]
  --> max chng: dpmx=   8.6462E-07 dtmpmx=   3.5188E-08

== TH FLOW =====================================================================
 Step    169 Time=  7.85000E+00 Dt=  5.00000E-02 [y] snes_conv_reason:   11
  newton =   1 [     176] linear =   114 [     20259] cuts =  0 [   0]
  --> max chng: dpmx=   8.4343E-07 dtmpmx=   3.4680E-08

== TH FLOW =====================================================================
 Step    170 Time=  7.90000E+00 Dt=  5.00000E-02 [y] snes_conv_reason:   11
  newton =   1 [     177] linear =   113 [     20372] cuts =  0 [   0]
  --> max chng: dpmx=   8.1409E-07 dtmpmx=   3.4204E-08

== TH FLOW =====================================================================
 Step    171 Time=  7.95000E+00 Dt=  5.00000E-02 [y] snes_conv_reason:   11
  newton =   1 [     178] linear =   114 [     20486] cuts =  0 [   0]
  --> max chng: dpmx=   7.7859E-07 dtmpmx=   3.3711E-08

== TH FLOW =====================================================================
 Step    172 Time=  8.00000E+00 Dt=  5.00000E-02 [y] snes_conv_reason:   11
  newton =   1 [     179] linear =   107 [     20593] cuts =  0 [   0]
  --> max chng: dpmx=   7.3935E-07 dtmpmx=   3.3228E-08

== TH FLOW =====================================================================
 Step    173 Time=  8.05000E+00 Dt=  5.00000E-02 [y] snes_conv_reason:   11
  newton =   1 [     180] linear =   107 [     20700] cuts =  0 [   0]
  --> max chng: dpmx=   6.9756E-07 dtmpmx=   3.2751E-08

== TH FLOW =====================================================================
 Step    174 Time=  8.10000E+00 Dt=  5.00000E-02 [y] snes_conv_reason:   11
  newton =   1 [     181] linear =   111 [     20811] cuts =  0 [   0]
  --> max chng: dpmx=   6.5472E-07 dtmpmx=   3.2308E-08

== TH FLOW =====================================================================
 Step    175 Time=  8.15000E+00 Dt=  5.00000E-02 [y] snes_conv_reason:   11
  newton =   1 [     182] linear =   113 [     20924] cuts =  0 [   0]
  --> max chng: dpmx=   6.1106E-07 dtmpmx=   3.1717E-08

== TH FLOW =====================================================================
 Step    176 Time=  8.20000E+00 Dt=  5.00000E-02 [y] snes_conv_reason:   11
  newton =   1 [     183] linear =   113 [     21037] cuts =  0 [   0]
  --> max chng: dpmx=   5.6799E-07 dtmpmx=   3.0807E-08

== TH FLOW =====================================================================
 Step    177 Time=  8.25000E+00 Dt=  5.00000E-02 [y] snes_conv_reason:   11
  newton =   1 [     184] linear =   106 [     21143] cuts =  0 [   0]
  --> max chng: dpmx=   5.2596E-07 dtmpmx=   2.9712E-08

== TH FLOW =====================================================================
 Step    178 Time=  8.30000E+00 Dt=  5.00000E-02 [y] snes_conv_reason:   11
  newton =   1 [     185] linear =   126 [     21269] cuts =  0 [   0]
  --> max chng: dpmx=   4.8475E-07 dtmpmx=   2.8413E-08

== TH FLOW =====================================================================
 Step    179 Time=  8.35000E+00 Dt=  5.00000E-02 [y] snes_conv_reason:   11
  newton =   1 [     186] linear =   111 [     21380] cuts =  0 [   0]
  --> max chng: dpmx=   4.4541E-07 dtmpmx=   2.6999E-08

== TH FLOW =====================================================================
 Step    180 Time=  8.40000E+00 Dt=  5.00000E-02 [y] snes_conv_reason:   11
  newton =   1 [     187] linear =   114 [     21494] cuts =  0 [   0]
  --> max chng: dpmx=   4.0780E-07 dtmpmx=   2.5394E-08

== TH FLOW =====================================================================
 Step    181 Time=  8.45000E+00 Dt=  5.00000E-02 [y] snes_conv_reason:   11
  newton =   1 [     188] linear =   116 [     21610] cuts =  0 [   0]
  --> max chng: dpmx=   3.7230E-07 dtmpmx=   2.3891E-08

== TH FLOW =====================================================================
 Step    182 Time=  8.50000E+00 Dt=  5.00000E-02 [y] snes_conv_reason:   11
  newton =   1 [     189] linear =   115 [     21725] cuts =  0 [   0]
  --> max chng: dpmx=   3.3854E-07 dtmpmx=   2.2236E-08

== TH FLOW =====================================================================
 Step    183 Time=  8.55000E+00 Dt=  5.00000E-02 [y] snes_conv_reason:   11
  newton =   1 [     190] linear =   116 [     21841] cuts =  0 [   0]
  --> max chng: dpmx=   3.0710E-07 dtmpmx=   2.0687E-08

== TH FLOW =====================================================================
 Step    184 Time=  8.60000E+00 Dt=  5.00000E-02 [y] snes_conv_reason:   11
  newton =   1 [     191] linear =   117 [     21958] cuts =  0 [   0]
  --> max chng: dpmx=   2.7765E-07 dtmpmx=   1.9139E-08

== TH FLOW =====================================================================
 Step    185 Time=  8.65000E+00 Dt=  5.00000E-02 [y] snes_conv_reason:   11
  newton =   1 [     192] linear =   113 [     22071] cuts =  0 [   0]
  --> max chng: dpmx=   2.5018E-07 dtmpmx=   1.7637E-08

== TH FLOW =====================================================================
 Step    186 Time=  8.70000E+00 Dt=  5.00000E-02 [y] snes_conv_reason:   11
  newton =   1 [     193] linear =   116 [     22187] cuts =  0 [   0]
  --> max chng: dpmx=   2.2468E-07 dtmpmx=   1.6157E-08

== TH FLOW =====================================================================
 Step    187 Time=  8.75000E+00 Dt=  5.00000E-02 [y] snes_conv_reason:   11
  newton =   1 [     194] linear =   116 [     22303] cuts =  0 [   0]
  --> max chng: dpmx=   2.0128E-07 dtmpmx=   1.4844E-08

== TH FLOW =====================================================================
 Step    188 Time=  8.80000E+00 Dt=  5.00000E-02 [y] snes_conv_reason:   11
  newton =   1 [     195] linear =   119 [     22422] cuts =  0 [   0]
  --> max chng: dpmx=   1.7975E-07 dtmpmx=   1.3503E-08

== TH FLOW =====================================================================
 Step    189 Time=  8.85000E+00 Dt=  5.00000E-02 [y] snes_conv_reason:   11
  newton =   1 [     196] linear =   116 [     22538] cuts =  0 [   0]
  --> max chng: dpmx=   1.6007E-07 dtmpmx=   1.2257E-08

== TH FLOW =====================================================================
 Step    190 Time=  8.90000E+00 Dt=  5.00000E-02 [y] snes_conv_reason:   11
  newton =   1 [     197] linear =   117 [     22655] cuts =  0 [   0]
  --> max chng: dpmx=   1.4214E-07 dtmpmx=   1.1148E-08

== TH FLOW =====================================================================
 Step    191 Time=  8.95000E+00 Dt=  5.00000E-02 [y] snes_conv_reason:   11
  newton =   1 [     198] linear =   118 [     22773] cuts =  0 [   0]
  --> max chng: dpmx=   1.2573E-07 dtmpmx=   1.0047E-08

== TH FLOW =====================================================================
 Step    192 Time=  9.00000E+00 Dt=  5.00000E-02 [y] snes_conv_reason:   11
  newton =   1 [     199] linear =   119 [     22892] cuts =  0 [   0]
  --> max chng: dpmx=   1.1083E-07 dtmpmx=   8.9886E-09

== TH FLOW =====================================================================
 Step    193 Time=  9.05000E+00 Dt=  5.00000E-02 [y] snes_conv_reason:   11
  newton =   1 [     200] linear =   118 [     23010] cuts =  0 [   0]
  --> max chng: dpmx=   9.7323E-08 dtmpmx=   8.1096E-09

== TH FLOW =====================================================================
 Step    194 Time=  9.10000E+00 Dt=  5.00000E-02 [y] snes_conv_reason:   11
  newton =   1 [     201] linear =   112 [     23122] cuts =  0 [   0]
  --> max chng: dpmx=   8.5332E-08 dtmpmx=   7.2217E-09

== TH FLOW =====================================================================
 Step    195 Time=  9.15000E+00 Dt=  5.00000E-02 [y] snes_conv_reason:   11
  newton =   1 [     202] linear =   118 [     23240] cuts =  0 [   0]
  --> max chng: dpmx=   7.4506E-08 dtmpmx=   6.4569E-09

== TH FLOW =====================================================================
 Step    196 Time=  9.20000E+00 Dt=  5.00000E-02 [y] snes_conv_reason:   11
  newton =   1 [     203] linear =   111 [     23351] cuts =  0 [   0]
  --> max chng: dpmx=   6.4843E-08 dtmpmx=   5.7058E-09

== TH FLOW =====================================================================
 Step    197 Time=  9.25000E+00 Dt=  5.00000E-02 [y] snes_conv_reason:   11
  newton =   1 [     204] linear =   118 [     23469] cuts =  0 [   0]
  --> max chng: dpmx=   5.6112E-08 dtmpmx=   5.1169E-09

== TH FLOW =====================================================================
 Step    198 Time=  9.30000E+00 Dt=  5.00000E-02 [y] snes_conv_reason:   11
  newton =   1 [     205] linear =   119 [     23588] cuts =  0 [   0]
  --> max chng: dpmx=   4.8545E-08 dtmpmx=   4.4225E-09

== TH FLOW =====================================================================
 Step    199 Time=  9.35000E+00 Dt=  5.00000E-02 [y] snes_conv_reason:   11
  newton =   1 [     206] linear =   118 [     23706] cuts =  0 [   0]
  --> max chng: dpmx=   4.1793E-08 dtmpmx=   3.9331E-09

== TH FLOW =====================================================================
 Step    200 Time=  9.40000E+00 Dt=  5.00000E-02 [y] snes_conv_reason:   11
  newton =   1 [     207] linear =   121 [     23827] cuts =  0 [   0]
  --> max chng: dpmx=   3.5856E-08 dtmpmx=   3.3987E-09

== TH FLOW =====================================================================
 Step    201 Time=  9.45000E+00 Dt=  5.00000E-02 [y] snes_conv_reason:   11
  newton =   1 [     208] linear =   119 [     23946] cuts =  0 [   0]
  --> max chng: dpmx=   3.0501E-08 dtmpmx=   3.0303E-09

== TH FLOW =====================================================================
 Step    202 Time=  9.50000E+00 Dt=  5.00000E-02 [y] snes_conv_reason:   11
  newton =   1 [     209] linear =   119 [     24065] cuts =  0 [   0]
  --> max chng: dpmx=   2.5961E-08 dtmpmx=   2.5981E-09

== TH FLOW =====================================================================
 Step    203 Time=  9.55000E+00 Dt=  5.00000E-02 [y] snes_conv_reason:   11
  newton =   1 [     210] linear =   120 [     24185] cuts =  0 [   0]
  --> max chng: dpmx=   2.2002E-08 dtmpmx=   2.2265E-09

== TH FLOW =====================================================================
 Step    204 Time=  9.60000E+00 Dt=  5.00000E-02 [y] snes_conv_reason:   11
  newton =   1 [     211] linear =   121 [     24306] cuts =  0 [   0]
  --> max chng: dpmx=   1.8626E-08 dtmpmx=   1.9811E-09

== TH FLOW =====================================================================
 Step    205 Time=  9.65000E+00 Dt=  5.00000E-02 [y] snes_conv_reason:   11
  newton =   1 [     212] linear =   116 [     24422] cuts =  0 [   0]
  --> max chng: dpmx=   1.5600E-08 dtmpmx=   1.6606E-09

== TH FLOW =====================================================================
 Step    206 Time=  9.70000E+00 Dt=  5.00000E-02 [y] snes_conv_reason:   11
  newton =   1 [     213] linear =   122 [     24544] cuts =  0 [   0]
  --> max chng: dpmx=   1.2922E-08 dtmpmx=   1.4213E-09

== TH FLOW =====================================================================
 Step    207 Time=  9.75000E+00 Dt=  5.00000E-02 [y] snes_conv_reason:   11
  newton =   1 [     214] linear =   122 [     24666] cuts =  0 [   0]
  --> max chng: dpmx=   1.0710E-08 dtmpmx=   1.1790E-09

== TH FLOW =====================================================================
 Step    208 Time=  9.80000E+00 Dt=  5.00000E-02 [y] snes_conv_reason:   11
  newton =   1 [     215] linear =   122 [     24788] cuts =  0 [   0]
  --> max chng: dpmx=   8.8476E-09 dtmpmx=   1.0431E-09

== TH FLOW =====================================================================
 Step    209 Time=  9.85000E+00 Dt=  5.00000E-02 [y] snes_conv_reason:   11
  newton =   1 [     216] linear =   128 [     24916] cuts =  0 [   0]
  --> max chng: dpmx=   7.3342E-09 dtmpmx=   8.6334E-10

== TH FLOW =====================================================================
 Step    210 Time=  9.90000E+00 Dt=  5.00000E-02 [y] snes_conv_reason:   11
  newton =   1 [     217] linear =   124 [     25040] cuts =  0 [   0]
  --> max chng: dpmx=   5.9372E-09 dtmpmx=   7.3085E-10

== TH FLOW =====================================================================
 Step    211 Time=  9.95000E+00 Dt=  5.00000E-02 [y] snes_conv_reason:   11
  newton =   1 [     218] linear =   123 [     25163] cuts =  0 [   0]
  --> max chng: dpmx=   4.8894E-09 dtmpmx=   5.6654E-10

== TH FLOW =====================================================================
 Step    212 Time=  1.00000E+01 Dt=  5.00000E-02 [y] snes_conv_reason:   11
  newton =   1 [     219] linear =   129 [     25292] cuts =  0 [   0]
  --> max chng: dpmx=   3.8417E-09 dtmpmx=   5.0872E-10

== TH FLOW =====================================================================
 Step    213 Time=  1.00500E+01 Dt=  5.00000E-02 [y] snes_conv_reason:   11
  newton =   1 [     220] linear =   136 [     25428] cuts =  0 [   0]
  --> max chng: dpmx=   3.0268E-09 dtmpmx=   4.0441E-10

== TH FLOW =====================================================================
 Step    214 Time=  1.01000E+01 Dt=  5.00000E-02 [y] snes_conv_reason:   11
  newton =   1 [     221] linear =   128 [     25556] cuts =  0 [   0]
  --> max chng: dpmx=   2.4447E-09 dtmpmx=   3.1996E-10

== TH FLOW =====================================================================
 Step    215 Time=  1.01500E+01 Dt=  5.00000E-02 [y] snes_conv_reason:   11
  newton =   1 [     222] linear =   124 [     25680] cuts =  0 [   0]
  --> max chng: dpmx=   1.8626E-09 dtmpmx=   2.5344E-10

== TH FLOW =====================================================================
 Step    216 Time=  1.02000E+01 Dt=  5.00000E-02 [y] snes_conv_reason:   11
  newton =   1 [     223] linear =   133 [     25813] cuts =  0 [   0]
  --> max chng: dpmx=   1.5134E-09 dtmpmx=   2.5753E-10

== TH FLOW =====================================================================
 Step    217 Time=  1.02500E+01 Dt=  5.00000E-02 [y] snes_conv_reason:   11
  newton =   1 [     224] linear =   127 [     25940] cuts =  0 [   0]
  --> max chng: dpmx=   1.1642E-09 dtmpmx=   1.6303E-10

== TH FLOW =====================================================================
 Step    218 Time=  1.03000E+01 Dt=  5.00000E-02 [y] snes_conv_reason:   11
  newton =   1 [     225] linear =   127 [     26067] cuts =  0 [   0]
  --> max chng: dpmx=   8.1491E-10 dtmpmx=   1.5985E-10

== TH FLOW =====================================================================
 Step    219 Time=  1.03500E+01 Dt=  5.00000E-02 [y] snes_conv_reason:   11
  newton =   1 [     226] linear =   123 [     26190] cuts =  0 [   0]
  --> max chng: dpmx=   5.8208E-10 dtmpmx=   1.3593E-10

== TH FLOW =====================================================================
 Step    220 Time=  1.04000E+01 Dt=  5.00000E-02 [y] snes_conv_reason:   11
  newton =   1 [     227] linear =   115 [     26305] cuts =  0 [   0]
  --> max chng: dpmx=   4.6566E-10 dtmpmx=   1.0752E-10

== TH FLOW =====================================================================
 Step    221 Time=  1.04500E+01 Dt=  5.00000E-02 [y] snes_conv_reason:   11
  newton =   1 [     228] linear =   118 [     26423] cuts =  0 [   0]
  --> max chng: dpmx=   5.8208E-10 dtmpmx=   1.0543E-10

== TH FLOW =====================================================================
 Step    222 Time=  1.05000E+01 Dt=  5.00000E-02 [y] snes_conv_reason:   11
  newton =   1 [     229] linear =   119 [     26542] cuts =  0 [   0]
  --> max chng: dpmx=   5.8208E-10 dtmpmx=   9.2854E-11

== TH FLOW =====================================================================
 Step    223 Time=  1.05500E+01 Dt=  5.00000E-02 [y] snes_conv_reason:   11
  newton =   1 [     230] linear =   107 [     26649] cuts =  0 [   0]
  --> max chng: dpmx=   5.8208E-10 dtmpmx=   8.2805E-11

== TH FLOW =====================================================================
 Step    224 Time=  1.06000E+01 Dt=  5.00000E-02 [y] snes_conv_reason:   11
  newton =   1 [     231] linear =   114 [     26763] cuts =  0 [   0]
  --> max chng: dpmx=   6.9849E-10 dtmpmx=   8.8262E-11

== TH FLOW =====================================================================
 Step    225 Time=  1.06500E+01 Dt=  5.00000E-02 [y] snes_conv_reason:   11
  newton =   1 [     232] linear =    94 [     26857] cuts =  0 [   0]
  --> max chng: dpmx=   6.9849E-10 dtmpmx=   8.4599E-11

== TH FLOW =====================================================================
 Step    226 Time=  1.07000E+01 Dt=  5.00000E-02 [y] snes_conv_reason:   11
  newton =   1 [     233] linear =   111 [     26968] cuts =  0 [   0]
  --> max chng: dpmx=   6.9849E-10 dtmpmx=   8.4956E-11

== TH FLOW =====================================================================
 Step    227 Time=  1.07500E+01 Dt=  5.00000E-02 [y] snes_conv_reason:   11
  newton =   1 [     234] linear =   116 [     27084] cuts =  0 [   0]
  --> max chng: dpmx=   6.9849E-10 dtmpmx=   9.5049E-11

== TH FLOW =====================================================================
 Step    228 Time=  1.08000E+01 Dt=  5.00000E-02 [y] snes_conv_reason:   11
  newton =   1 [     235] linear =   102 [     27186] cuts =  0 [   0]
  --> max chng: dpmx=   5.8208E-10 dtmpmx=   9.1996E-11

== TH FLOW =====================================================================
 Step    229 Time=  1.08500E+01 Dt=  5.00000E-02 [y] snes_conv_reason:   11
  newton =   1 [     236] linear =   103 [     27289] cuts =  0 [   0]
  --> max chng: dpmx=   5.8208E-10 dtmpmx=   1.1248E-10

== TH FLOW =====================================================================
 Step    230 Time=  1.09000E+01 Dt=  5.00000E-02 [y] snes_conv_reason:   11
  newton =   1 [     237] linear =   111 [     27400] cuts =  0 [   0]
  --> max chng: dpmx=   5.8208E-10 dtmpmx=   9.9943E-11

== TH FLOW =====================================================================
 Step    231 Time=  1.09500E+01 Dt=  5.00000E-02 [y] snes_conv_reason:   11
  newton =   1 [     238] linear =   114 [     27514] cuts =  0 [   0]
  --> max chng: dpmx=   5.8208E-10 dtmpmx=   8.8711E-11

== TH FLOW =====================================================================
 Step    232 Time=  1.10000E+01 Dt=  5.00000E-02 [y] snes_conv_reason:   11
  newton =   1 [     239] linear =   109 [     27623] cuts =  0 [   0]
  --> max chng: dpmx=   5.8208E-10 dtmpmx=   9.0143E-11

== TH FLOW =====================================================================
 Step    233 Time=  1.10500E+01 Dt=  5.00000E-02 [y] snes_conv_reason:   11
  newton =   1 [     240] linear =   114 [     27737] cuts =  0 [   0]
  --> max chng: dpmx=   5.8208E-10 dtmpmx=   1.0310E-10

== TH FLOW =====================================================================
 Step    234 Time=  1.11000E+01 Dt=  5.00000E-02 [y] snes_conv_reason:   11
  newton =   1 [     241] linear =   117 [     27854] cuts =  0 [   0]
  --> max chng: dpmx=   5.8208E-10 dtmpmx=   8.2455E-11

== TH FLOW =====================================================================
 Step    235 Time=  1.11500E+01 Dt=  5.00000E-02 [y] snes_conv_reason:   11
  newton =   1 [     242] linear =   116 [     27970] cuts =  0 [   0]
  --> max chng: dpmx=   4.6566E-10 dtmpmx=   9.0729E-11

== TH FLOW =====================================================================
 Step    236 Time=  1.12000E+01 Dt=  5.00000E-02 [y] snes_conv_reason:   11
  newton =   1 [     243] linear =   109 [     28079] cuts =  0 [   0]
  --> max chng: dpmx=   4.6566E-10 dtmpmx=   8.9610E-11

== TH FLOW =====================================================================
 Step    237 Time=  1.12500E+01 Dt=  5.00000E-02 [y] snes_conv_reason:   11
  newton =   1 [     244] linear =   115 [     28194] cuts =  0 [   0]
  --> max chng: dpmx=   4.6566E-10 dtmpmx=   8.7361E-11

== TH FLOW =====================================================================
 Step    238 Time=  1.13000E+01 Dt=  5.00000E-02 [y] snes_conv_reason:   11
  newton =   1 [     245] linear =    99 [     28293] cuts =  0 [   0]
  --> max chng: dpmx=   4.6566E-10 dtmpmx=   8.3185E-11

== TH FLOW =====================================================================
 Step    239 Time=  1.13500E+01 Dt=  5.00000E-02 [y] snes_conv_reason:   11
  newton =   1 [     246] linear =   114 [     28407] cuts =  0 [   0]
  --> max chng: dpmx=   3.4925E-10 dtmpmx=   8.9416E-11

== TH FLOW =====================================================================
 Step    240 Time=  1.14000E+01 Dt=  5.00000E-02 [y] snes_conv_reason:   11
  newton =   1 [     247] linear =   104 [     28511] cuts =  0 [   0]
  --> max chng: dpmx=   3.4925E-10 dtmpmx=   1.0028E-10

== TH FLOW =====================================================================
 Step    241 Time=  1.14500E+01 Dt=  5.00000E-02 [y] snes_conv_reason:   11
  newton =   1 [     248] linear =   117 [     28628] cuts =  0 [   0]
  --> max chng: dpmx=   3.4925E-10 dtmpmx=   9.2548E-11

== TH FLOW =====================================================================
 Step    242 Time=  1.15000E+01 Dt=  5.00000E-02 [y] snes_conv_reason:   11
  newton =   1 [     249] linear =   119 [     28747] cuts =  0 [   0]
  --> max chng: dpmx=   3.4925E-10 dtmpmx=   8.7386E-11

== TH FLOW =====================================================================
 Step    243 Time=  1.15500E+01 Dt=  5.00000E-02 [y] snes_conv_reason:   11
  newton =   1 [     250] linear =   112 [     28859] cuts =  0 [   0]
  --> max chng: dpmx=   3.4925E-10 dtmpmx=   7.5875E-11

== TH FLOW =====================================================================
 Step    244 Time=  1.16000E+01 Dt=  5.00000E-02 [y] snes_conv_reason:   11
  newton =   1 [     251] linear =   109 [     28968] cuts =  0 [   0]
  --> max chng: dpmx=   3.4925E-10 dtmpmx=   9.0004E-11

== TH FLOW =====================================================================
 Step    245 Time=  1.16500E+01 Dt=  5.00000E-02 [y] snes_conv_reason:   11
  newton =   1 [     252] linear =   115 [     29083] cuts =  0 [   0]
  --> max chng: dpmx=   3.4925E-10 dtmpmx=   8.7665E-11

== TH FLOW =====================================================================
 Step    246 Time=  1.17000E+01 Dt=  5.00000E-02 [y] snes_conv_reason:   11
  newton =   1 [     253] linear =   114 [     29197] cuts =  0 [   0]
  --> max chng: dpmx=   2.3283E-10 dtmpmx=   9.2374E-11

== TH FLOW =====================================================================
 Step    247 Time=  1.17500E+01 Dt=  5.00000E-02 [y] snes_conv_reason:   11
  newton =   1 [     254] linear =   100 [     29297] cuts =  0 [   0]
  --> max chng: dpmx=   3.4925E-10 dtmpmx=   9.0372E-11

== TH FLOW =====================================================================
 Step    248 Time=  1.18000E+01 Dt=  5.00000E-02 [y] snes_conv_reason:   11
  newton =   1 [     255] linear =   110 [     29407] cuts =  0 [   0]
  --> max chng: dpmx=   2.3283E-10 dtmpmx=   9.4380E-11

== TH FLOW =====================================================================
 Step    249 Time=  1.18500E+01 Dt=  5.00000E-02 [y] snes_conv_reason:   11
  newton =   1 [     256] linear =    99 [     29506] cuts =  0 [   0]
  --> max chng: dpmx=   2.3283E-10 dtmpmx=   8.6667E-11

== TH FLOW =====================================================================
 Step    250 Time=  1.19000E+01 Dt=  5.00000E-02 [y] snes_conv_reason:   11
  newton =   1 [     257] linear =   103 [     29609] cuts =  0 [   0]
  --> max chng: dpmx=   2.3283E-10 dtmpmx=   9.5575E-11

== TH FLOW =====================================================================
 Step    251 Time=  1.19500E+01 Dt=  5.00000E-02 [y] snes_conv_reason:   11
  newton =   1 [     258] linear =   106 [     29715] cuts =  0 [   0]
  --> max chng: dpmx=   2.3283E-10 dtmpmx=   8.7084E-11

== TH FLOW =====================================================================
 Step    252 Time=  1.20000E+01 Dt=  5.00000E-02 [y] snes_conv_reason:   11
  newton =   1 [     259] linear =    98 [     29813] cuts =  0 [   0]
  --> max chng: dpmx=   2.3283E-10 dtmpmx=   8.4821E-11

== TH FLOW =====================================================================
 Step    253 Time=  1.20500E+01 Dt=  5.00000E-02 [y] snes_conv_reason:   11
  newton =   1 [     260] linear =   121 [     29934] cuts =  0 [   0]
  --> max chng: dpmx=   2.3283E-10 dtmpmx=   8.9997E-11

== TH FLOW =====================================================================
 Step    254 Time=  1.21000E+01 Dt=  5.00000E-02 [y] snes_conv_reason:   11
  newton =   1 [     261] linear =    79 [     30013] cuts =  0 [   0]
  --> max chng: dpmx=   2.3283E-10 dtmpmx=   9.9252E-11

== TH FLOW =====================================================================
 Step    255 Time=  1.21500E+01 Dt=  5.00000E-02 [y] snes_conv_reason:   11
  newton =   1 [     262] linear =    99 [     30112] cuts =  0 [   0]
  --> max chng: dpmx=   2.3283E-10 dtmpmx=   8.1265E-11

== TH FLOW =====================================================================
 Step    256 Time=  1.22000E+01 Dt=  5.00000E-02 [y] snes_conv_reason:   11
  newton =   1 [     263] linear =   104 [     30216] cuts =  0 [   0]
  --> max chng: dpmx=   2.3283E-10 dtmpmx=   9.0981E-11

== TH FLOW =====================================================================
 Step    257 Time=  1.22500E+01 Dt=  5.00000E-02 [y] snes_conv_reason:   11
  newton =   1 [     264] linear =   118 [     30334] cuts =  0 [   0]
  --> max chng: dpmx=   2.3283E-10 dtmpmx=   8.5123E-11

[...]
 Step    493 Time=  2.40500E+01 Dt=  5.00000E-02 [y] snes_conv_reason:   11
  newton =   1 [     500] linear =    87 [     52815] cuts =  0 [   0]
  --> max chng: dpmx=   2.3283E-10 dtmpmx=   8.4942E-11

== TH FLOW =====================================================================
 Step    494 Time=  2.41000E+01 Dt=  5.00000E-02 [y] snes_conv_reason:   11
  newton =   1 [     501] linear =    77 [     52892] cuts =  0 [   0]
  --> max chng: dpmx=   2.3283E-10 dtmpmx=   9.1896E-11

== TH FLOW =====================================================================
 Step    495 Time=  2.41500E+01 Dt=  5.00000E-02 [y] snes_conv_reason:   11
  newton =   1 [     502] linear =    86 [     52978] cuts =  0 [   0]
  --> max chng: dpmx=   2.3283E-10 dtmpmx=   8.4851E-11

== TH FLOW =====================================================================
 Step    496 Time=  2.42000E+01 Dt=  5.00000E-02 [y] snes_conv_reason:   11
  newton =   1 [     503] linear =   109 [     53087] cuts =  0 [   0]
  --> max chng: dpmx=   2.3283E-10 dtmpmx=   9.5408E-11

== TH FLOW =====================================================================
 Step    497 Time=  2.42500E+01 Dt=  5.00000E-02 [y] snes_conv_reason:   11
  newton =   1 [     504] linear =    67 [     53154] cuts =  0 [   0]
  --> max chng: dpmx=   2.3283E-10 dtmpmx=   8.3546E-11

== TH FLOW =====================================================================
 Step    498 Time=  2.43000E+01 Dt=  5.00000E-02 [y] snes_conv_reason:   11
  newton =   1 [     505] linear =   102 [     53256] cuts =  0 [   0]
  --> max chng: dpmx=   2.3283E-10 dtmpmx=   9.3996E-11

== TH FLOW =====================================================================
 Step    499 Time=  2.43500E+01 Dt=  5.00000E-02 [y] snes_conv_reason:   11
  newton =   1 [     506] linear =   110 [     53366] cuts =  0 [   0]
  --> max chng: dpmx=   2.3283E-10 dtmpmx=   8.7262E-11

== TH FLOW =====================================================================
 Step    500 Time=  2.44000E+01 Dt=  5.00000E-02 [y] snes_conv_reason:   11
  newton =   1 [     507] linear =    97 [     53463] cuts =  0 [   0]
  --> max chng: dpmx=   2.3283E-10 dtmpmx=   8.6272E-11

== TH FLOW =====================================================================
 Step    501 Time=  2.44500E+01 Dt=  5.00000E-02 [y] snes_conv_reason:   11
  newton =   1 [     508] linear =   127 [     53590] cuts =  0 [   0]
  --> max chng: dpmx=   2.3283E-10 dtmpmx=   8.6935E-11

== TH FLOW =====================================================================
 Step    502 Time=  2.45000E+01 Dt=  5.00000E-02 [y] snes_conv_reason:   11
  newton =   1 [     509] linear =    99 [     53689] cuts =  0 [   0]
  --> max chng: dpmx=   2.3283E-10 dtmpmx=   9.7220E-11

== TH FLOW =====================================================================
 Step    503 Time=  2.45500E+01 Dt=  5.00000E-02 [y] snes_conv_reason:   11
  newton =   1 [     510] linear =    98 [     53787] cuts =  0 [   0]
  --> max chng: dpmx=   2.3283E-10 dtmpmx=   9.7268E-11

== TH FLOW =====================================================================
 Step    504 Time=  2.46000E+01 Dt=  5.00000E-02 [y] snes_conv_reason:   11
  newton =   1 [     511] linear =   113 [     53900] cuts =  0 [   0]
  --> max chng: dpmx=   2.3283E-10 dtmpmx=   8.8928E-11

== TH FLOW =====================================================================
 Step    505 Time=  2.46500E+01 Dt=  5.00000E-02 [y] snes_conv_reason:   11
  newton =   1 [     512] linear =    99 [     53999] cuts =  0 [   0]
  --> max chng: dpmx=   2.3283E-10 dtmpmx=   8.6066E-11

== TH FLOW =====================================================================
 Step    506 Time=  2.47000E+01 Dt=  5.00000E-02 [y] snes_conv_reason:   11
  newton =   1 [     513] linear =    94 [     54093] cuts =  0 [   0]
  --> max chng: dpmx=   2.3283E-10 dtmpmx=   9.5682E-11

== TH FLOW =====================================================================
 Step    507 Time=  2.47500E+01 Dt=  5.00000E-02 [y] snes_conv_reason:   11
  newton =   1 [     514] linear =    93 [     54186] cuts =  0 [   0]
  --> max chng: dpmx=   2.3283E-10 dtmpmx=   8.2649E-11

== TH FLOW =====================================================================
 Step    508 Time=  2.48000E+01 Dt=  5.00000E-02 [y] snes_conv_reason:   11
  newton =   1 [     515] linear =    85 [     54271] cuts =  0 [   0]
  --> max chng: dpmx=   2.3283E-10 dtmpmx=   8.6825E-11

== TH FLOW =====================================================================
 Step    509 Time=  2.48500E+01 Dt=  5.00000E-02 [y] snes_conv_reason:   11
  newton =   1 [     516] linear =    83 [     54354] cuts =  0 [   0]
  --> max chng: dpmx=   2.3283E-10 dtmpmx=   9.3424E-11

== TH FLOW =====================================================================
 Step    510 Time=  2.49000E+01 Dt=  5.00000E-02 [y] snes_conv_reason:   11
  newton =   1 [     517] linear =   107 [     54461] cuts =  0 [   0]
  --> max chng: dpmx=   2.3283E-10 dtmpmx=   9.7209E-11

== TH FLOW =====================================================================
 Step    511 Time=  2.49500E+01 Dt=  5.00000E-02 [y] snes_conv_reason:   11
  newton =   1 [     518] linear =    74 [     54535] cuts =  0 [   0]
  --> max chng: dpmx=   2.3283E-10 dtmpmx=   8.8605E-11

== TH FLOW =====================================================================
 Step    512 Time=  2.50000E+01 Dt=  5.00000E-02 [y] snes_conv_reason:   11
  newton =   1 [     519] linear =    90 [     54625] cuts =  0 [   0]
  --> max chng: dpmx=   2.3283E-10 dtmpmx=   8.8795E-11

== TH FLOW =====================================================================
 Step    513 Time=  2.50500E+01 Dt=  5.00000E-02 [y] snes_conv_reason:   11
  newton =   1 [     520] linear =   111 [     54736] cuts =  0 [   0]
  --> max chng: dpmx=   2.3283E-10 dtmpmx=   8.8273E-11

== TH FLOW =====================================================================
 Step    514 Time=  2.51000E+01 Dt=  5.00000E-02 [y] snes_conv_reason:   11
  newton =   1 [     521] linear =    85 [     54821] cuts =  0 [   0]
  --> max chng: dpmx=   2.3283E-10 dtmpmx=   8.8425E-11

== TH FLOW =====================================================================
 Step    515 Time=  2.51500E+01 Dt=  5.00000E-02 [y] snes_conv_reason:   11
  newton =   1 [     522] linear =   116 [     54937] cuts =  0 [   0]
  --> max chng: dpmx=   2.3283E-10 dtmpmx=   8.7930E-11

== TH FLOW =====================================================================
 Step    516 Time=  2.52000E+01 Dt=  5.00000E-02 [y] snes_conv_reason:   11
  newton =   1 [     523] linear =    86 [     55023] cuts =  0 [   0]
  --> max chng: dpmx=   2.3283E-10 dtmpmx=   8.5855E-11

== TH FLOW =====================================================================
 Step    517 Time=  2.52500E+01 Dt=  5.00000E-02 [y] snes_conv_reason:   11
  newton =   1 [     524] linear =   126 [     55149] cuts =  0 [   0]
  --> max chng: dpmx=   2.3283E-10 dtmpmx=   8.9285E-11

== TH FLOW =====================================================================
 Step    518 Time=  2.53000E+01 Dt=  5.00000E-02 [y] snes_conv_reason:   11
  newton =   1 [     525] linear =    89 [     55238] cuts =  0 [   0]
  --> max chng: dpmx=   2.3283E-10 dtmpmx=   8.2647E-11

== TH FLOW =====================================================================
 Step    519 Time=  2.53500E+01 Dt=  5.00000E-02 [y] snes_conv_reason:   11
  newton =   1 [     526] linear =    86 [     55324] cuts =  0 [   0]
  --> max chng: dpmx=   2.3283E-10 dtmpmx=   9.5394E-11

== TH FLOW =====================================================================
 Step    520 Time=  2.54000E+01 Dt=  5.00000E-02 [y] snes_conv_reason:   11
  newton =   1 [     527] linear =    88 [     55412] cuts =  0 [   0]
  --> max chng: dpmx=   2.3283E-10 dtmpmx=   8.2760E-11

== TH FLOW =====================================================================
 Step    521 Time=  2.54500E+01 Dt=  5.00000E-02 [y] snes_conv_reason:   11
  newton =   1 [     528] linear =    72 [     55484] cuts =  0 [   0]
  --> max chng: dpmx=   2.3283E-10 dtmpmx=   8.5773E-11

== TH FLOW =====================================================================
 Step    522 Time=  2.55000E+01 Dt=  5.00000E-02 [y] snes_conv_reason:   11
  newton =   1 [     529] linear =    86 [     55570] cuts =  0 [   0]
  --> max chng: dpmx=   2.3283E-10 dtmpmx=   9.5289E-11

== TH FLOW =====================================================================
 Step    523 Time=  2.55500E+01 Dt=  5.00000E-02 [y] snes_conv_reason:   11
  newton =   1 [     530] linear =   100 [     55670] cuts =  0 [   0]
  --> max chng: dpmx=   2.3283E-10 dtmpmx=   8.1315E-11

== TH FLOW =====================================================================
 Step    524 Time=  2.56000E+01 Dt=  5.00000E-02 [y] snes_conv_reason:   11
  newton =   1 [     531] linear =    85 [     55755] cuts =  0 [   0]
  --> max chng: dpmx=   2.3283E-10 dtmpmx=   9.2296E-11

== TH FLOW =====================================================================
 Step    525 Time=  2.56500E+01 Dt=  5.00000E-02 [y] snes_conv_reason:   11
  newton =   1 [     532] linear =    73 [     55828] cuts =  0 [   0]
  --> max chng: dpmx=   2.3283E-10 dtmpmx=   8.6741E-11

== TH FLOW =====================================================================
 Step    526 Time=  2.57000E+01 Dt=  5.00000E-02 [y] snes_conv_reason:   11
  newton =   1 [     533] linear =   111 [     55939] cuts =  0 [   0]
  --> max chng: dpmx=   2.3283E-10 dtmpmx=   9.0377E-11

== TH FLOW =====================================================================
 Step    527 Time=  2.57500E+01 Dt=  5.00000E-02 [y] snes_conv_reason:   11
  newton =   1 [     534] linear =    92 [     56031] cuts =  0 [   0]
  --> max chng: dpmx=   2.3283E-10 dtmpmx=   9.7520E-11

== TH FLOW =====================================================================
 Step    528 Time=  2.58000E+01 Dt=  5.00000E-02 [y] snes_conv_reason:   11
  newton =   1 [     535] linear =    98 [     56129] cuts =  0 [   0]
  --> max chng: dpmx=   2.3283E-10 dtmpmx=   9.8009E-11

== TH FLOW =====================================================================
 Step    529 Time=  2.58500E+01 Dt=  5.00000E-02 [y] snes_conv_reason:   11
  newton =   1 [     536] linear =    82 [     56211] cuts =  0 [   0]
  --> max chng: dpmx=   2.3283E-10 dtmpmx=   8.3912E-11

== TH FLOW =====================================================================
 Step    530 Time=  2.59000E+01 Dt=  5.00000E-02 [y] snes_conv_reason:   11
  newton =   1 [     537] linear =    96 [     56307] cuts =  0 [   0]
  --> max chng: dpmx=   2.3283E-10 dtmpmx=   9.0372E-11

== TH FLOW =====================================================================
 Step    531 Time=  2.59500E+01 Dt=  5.00000E-02 [y] snes_conv_reason:   11
  newton =   1 [     538] linear =   108 [     56415] cuts =  0 [   0]
  --> max chng: dpmx=   2.3283E-10 dtmpmx=   8.9786E-11

== TH FLOW =====================================================================
 Step    532 Time=  2.60000E+01 Dt=  5.00000E-02 [y] snes_conv_reason:   11
  newton =   1 [     539] linear =    78 [     56493] cuts =  0 [   0]
  --> max chng: dpmx=   2.3283E-10 dtmpmx=   9.3930E-11

== TH FLOW =====================================================================
 Step    533 Time=  2.60500E+01 Dt=  5.00000E-02 [y] snes_conv_reason:   11
  newton =   1 [     540] linear =   117 [     56610] cuts =  0 [   0]
  --> max chng: dpmx=   2.3283E-10 dtmpmx=   8.6617E-11

== TH FLOW =====================================================================
 Step    534 Time=  2.61000E+01 Dt=  5.00000E-02 [y] snes_conv_reason:   11
  newton =   1 [     541] linear =   119 [     56729] cuts =  0 [   0]
  --> max chng: dpmx=   2.3283E-10 dtmpmx=   8.7626E-11

== TH FLOW =====================================================================
 Step    535 Time=  2.61500E+01 Dt=  5.00000E-02 [y] snes_conv_reason:   11
  newton =   1 [     542] linear =   103 [     56832] cuts =  0 [   0]
  --> max chng: dpmx=   2.3283E-10 dtmpmx=   9.6236E-11

== TH FLOW =====================================================================
 Step    536 Time=  2.62000E+01 Dt=  5.00000E-02 [y] snes_conv_reason:   11
  newton =   1 [     543] linear =    98 [     56930] cuts =  0 [   0]
  --> max chng: dpmx=   2.3283E-10 dtmpmx=   8.0313E-11

== TH FLOW =====================================================================
 Step    537 Time=  2.62500E+01 Dt=  5.00000E-02 [y] snes_conv_reason:   11
  newton =   1 [     544] linear =    97 [     57027] cuts =  0 [   0]
  --> max chng: dpmx=   2.3283E-10 dtmpmx=   8.1766E-11

== TH FLOW =====================================================================
 Step    538 Time=  2.63000E+01 Dt=  5.00000E-02 [y] snes_conv_reason:   11
  newton =   1 [     545] linear =    90 [     57117] cuts =  0 [   0]
  --> max chng: dpmx=   2.3283E-10 dtmpmx=   8.0306E-11

== TH FLOW =====================================================================
 Step    539 Time=  2.63500E+01 Dt=  5.00000E-02 [y] snes_conv_reason:   11
  newton =   1 [     546] linear =   102 [     57219] cuts =  0 [   0]
  --> max chng: dpmx=   2.3283E-10 dtmpmx=   8.2972E-11

== TH FLOW =====================================================================
 Step    540 Time=  2.64000E+01 Dt=  5.00000E-02 [y] snes_conv_reason:   11
  newton =   1 [     547] linear =    67 [     57286] cuts =  0 [   0]
  --> max chng: dpmx=   2.3283E-10 dtmpmx=   9.2129E-11

== TH FLOW =====================================================================
 Step    541 Time=  2.64500E+01 Dt=  5.00000E-02 [y] snes_conv_reason:   11
  newton =   1 [     548] linear =   120 [     57406] cuts =  0 [   0]
  --> max chng: dpmx=   2.3283E-10 dtmpmx=   8.1604E-11

== TH FLOW =====================================================================
 Step    542 Time=  2.65000E+01 Dt=  5.00000E-02 [y] snes_conv_reason:   11
  newton =   1 [     549] linear =   105 [     57511] cuts =  0 [   0]
  --> max chng: dpmx=   2.3283E-10 dtmpmx=   8.8482E-11

== TH FLOW =====================================================================
 Step    543 Time=  2.65500E+01 Dt=  5.00000E-02 [y] snes_conv_reason:   11
  newton =   1 [     550] linear =    64 [     57575] cuts =  0 [   0]
  --> max chng: dpmx=   2.3283E-10 dtmpmx=   8.5405E-11

== TH FLOW =====================================================================
 Step    544 Time=  2.66000E+01 Dt=  5.00000E-02 [y] snes_conv_reason:   11
  newton =   1 [     551] linear =   111 [     57686] cuts =  0 [   0]
  --> max chng: dpmx=   2.3283E-10 dtmpmx=   8.6763E-11

== TH FLOW =====================================================================
 Step    545 Time=  2.66500E+01 Dt=  5.00000E-02 [y] snes_conv_reason:   11
  newton =   1 [     552] linear =    94 [     57780] cuts =  0 [   0]
  --> max chng: dpmx=   2.3283E-10 dtmpmx=   9.2927E-11

== TH FLOW =====================================================================
 Step    546 Time=  2.67000E+01 Dt=  5.00000E-02 [y] snes_conv_reason:   11
  newton =   1 [     553] linear =    84 [     57864] cuts =  0 [   0]
  --> max chng: dpmx=   2.3283E-10 dtmpmx=   7.8954E-11

== TH FLOW =====================================================================
 Step    547 Time=  2.67500E+01 Dt=  5.00000E-02 [y] snes_conv_reason:   11
  newton =   1 [     554] linear =   117 [     57981] cuts =  0 [   0]
  --> max chng: dpmx=   2.3283E-10 dtmpmx=   9.2387E-11

== TH FLOW =====================================================================
 Step    548 Time=  2.68000E+01 Dt=  5.00000E-02 [y] snes_conv_reason:   11
  newton =   1 [     555] linear =    96 [     58077] cuts =  0 [   0]
  --> max chng: dpmx=   2.3283E-10 dtmpmx=   8.8189E-11

== TH FLOW =====================================================================
 Step    549 Time=  2.68500E+01 Dt=  5.00000E-02 [y] snes_conv_reason:   11
  newton =   1 [     556] linear =   102 [     58179] cuts =  0 [   0]
  --> max chng: dpmx=   2.3283E-10 dtmpmx=   8.5768E-11

== TH FLOW =====================================================================
 Step    550 Time=  2.69000E+01 Dt=  5.00000E-02 [y] snes_conv_reason:   11
  newton =   1 [     557] linear =    69 [     58248] cuts =  0 [   0]
  --> max chng: dpmx=   2.3283E-10 dtmpmx=   9.2689E-11

== TH FLOW =====================================================================
 Step    551 Time=  2.69500E+01 Dt=  5.00000E-02 [y] snes_conv_reason:   11
  newton =   1 [     558] linear =    76 [     58324] cuts =  0 [   0]
  --> max chng: dpmx=   2.3283E-10 dtmpmx=   9.9593E-11

== TH FLOW =====================================================================
 Step    552 Time=  2.70000E+01 Dt=  5.00000E-02 [y] snes_conv_reason:   11
  newton =   1 [     559] linear =    69 [     58393] cuts =  0 [   0]
  --> max chng: dpmx=   2.3283E-10 dtmpmx=   9.7442E-11

== TH FLOW =====================================================================
 Step    553 Time=  2.70500E+01 Dt=  5.00000E-02 [y] snes_conv_reason:   11
  newton =   1 [     560] linear =    60 [     58453] cuts =  0 [   0]
  --> max chng: dpmx=   2.3283E-10 dtmpmx=   1.0647E-10

== TH FLOW =====================================================================
 Step    554 Time=  2.71000E+01 Dt=  5.00000E-02 [y] snes_conv_reason:   11
  newton =   1 [     561] linear =    51 [     58504] cuts =  0 [   0]
  --> max chng: dpmx=   2.3283E-10 dtmpmx=   8.8253E-11

== TH FLOW =====================================================================
 Step    555 Time=  2.71500E+01 Dt=  5.00000E-02 [y] snes_conv_reason:   11
  newton =   1 [     562] linear =    93 [     58597] cuts =  0 [   0]
  --> max chng: dpmx=   2.3283E-10 dtmpmx=   9.0164E-11

== TH FLOW =====================================================================
 Step    556 Time=  2.72000E+01 Dt=  5.00000E-02 [y] snes_conv_reason:   11
  newton =   1 [     563] linear =   106 [     58703] cuts =  0 [   0]
  --> max chng: dpmx=   2.3283E-10 dtmpmx=   9.0990E-11

== TH FLOW =====================================================================
 Step    557 Time=  2.72500E+01 Dt=  5.00000E-02 [y] snes_conv_reason:   11
  newton =   1 [     564] linear =    72 [     58775] cuts =  0 [   0]
  --> max chng: dpmx=   2.3283E-10 dtmpmx=   9.2177E-11

== TH FLOW =====================================================================
 Step    558 Time=  2.73000E+01 Dt=  5.00000E-02 [y] snes_conv_reason:   11
  newton =   1 [     565] linear =    96 [     58871] cuts =  0 [   0]
  --> max chng: dpmx=   2.3283E-10 dtmpmx=   8.2453E-11

== TH FLOW =====================================================================
 Step    559 Time=  2.73500E+01 Dt=  5.00000E-02 [y] snes_conv_reason:   11
  newton =   1 [     566] linear =    85 [     58956] cuts =  0 [   0]
  --> max chng: dpmx=   2.3283E-10 dtmpmx=   9.9041E-11

== TH FLOW =====================================================================
 Step    560 Time=  2.74000E+01 Dt=  5.00000E-02 [y] snes_conv_reason:   11
  newton =   1 [     567] linear =    90 [     59046] cuts =  0 [   0]
  --> max chng: dpmx=   2.3283E-10 dtmpmx=   8.0689E-11

== TH FLOW =====================================================================
 Step    561 Time=  2.74500E+01 Dt=  5.00000E-02 [y] snes_conv_reason:   11
  newton =   1 [     568] linear =   110 [     59156] cuts =  0 [   0]
  --> max chng: dpmx=   2.3283E-10 dtmpmx=   8.7079E-11

== TH FLOW =====================================================================
 Step    562 Time=  2.75000E+01 Dt=  5.00000E-02 [y] snes_conv_reason:   11
  newton =   1 [     569] linear =   114 [     59270] cuts =  0 [   0]
  --> max chng: dpmx=   2.3283E-10 dtmpmx=   9.2774E-11

 Wall Clock Time:  1.9374E+02 [sec]   3.2291E+00 [min]   5.3818E-02 [hr]
