
===================
  PFLOTRAN v3.0.1
===================

 Extent of Gridded Domain
  X: 2.5000000000000000 - 97.500000000000000
  Y: 2.5000000000000000 - 1277.5000000000000
  Z: 2.5000000000000000 - 2.5000000000000000


=+=+=+=+=+=+=+=+=+=+=+=+=+=+=+=+=+=+=+=+=+=+=+=+=+=+=+=+=+=+=+=+=+=+=+=+=+=+=+=+

  Initial Condition

--------------------------------------------------------------------------------
          Flow Condition:   initial
                  Region:   all
--------------------------------------------------------------------------------

  Flow Condition: initial
    Synchronize time with update: no
    Time units: yr
    Length units: m
      Datum:
        Dataset: Unnamed Ascii Dataset
          Type: dataset_ascii_type
          Transient: no
          Array Rank:  3

    Sub Condition: pressure
      Type: hydrostatic
      Gradient:
        Dataset: Unnamed Ascii Dataset
          Type: dataset_ascii_type
          Transient: no
          Array Rank:  3
      Data:
        Dataset: Unnamed Ascii Dataset
          Type: dataset_ascii_type
          Transient: no
          Array Rank:  1

    Sub Condition: temperature
      Type: dirichlet
      Gradient:
      Data:
        Dataset: Unnamed Ascii Dataset
          Type: dataset_ascii_type
          Transient: no
          Array Rank:  1

--------------------------------------------------------------------------------

=+=+=+=+=+=+=+=+=+=+=+=+=+=+=+=+=+=+=+=+=+=+=+=+=+=+=+=+=+=+=+=+=+=+=+=+=+=+=+=+

  Boundary Condition

--------------------------------------------------------------------------------
          Flow Condition:   initial
                  Region:   north
--------------------------------------------------------------------------------

  Flow Condition: initial
    Synchronize time with update: no
    Time units: yr
    Length units: m
      Datum:
        Dataset: Unnamed Ascii Dataset
          Type: dataset_ascii_type
          Transient: no
          Array Rank:  3

    Sub Condition: pressure
      Type: hydrostatic
      Gradient:
        Dataset: Unnamed Ascii Dataset
          Type: dataset_ascii_type
          Transient: no
          Array Rank:  3
      Data:
        Dataset: Unnamed Ascii Dataset
          Type: dataset_ascii_type
          Transient: no
          Array Rank:  1

    Sub Condition: temperature
      Type: dirichlet
      Gradient:
      Data:
        Dataset: Unnamed Ascii Dataset
          Type: dataset_ascii_type
          Transient: no
          Array Rank:  1

--------------------------------------------------------------------------------

=+=+=+=+=+=+=+=+=+=+=+=+=+=+=+=+=+=+=+=+=+=+=+=+=+=+=+=+=+=+=+=+=+=+=+=+=+=+=+=+

  Boundary Condition

--------------------------------------------------------------------------------
          Flow Condition:   initial
                  Region:   south
--------------------------------------------------------------------------------

  Flow Condition: initial
    Synchronize time with update: no
    Time units: yr
    Length units: m
      Datum:
        Dataset: Unnamed Ascii Dataset
          Type: dataset_ascii_type
          Transient: no
          Array Rank:  3

    Sub Condition: pressure
      Type: hydrostatic
      Gradient:
        Dataset: Unnamed Ascii Dataset
          Type: dataset_ascii_type
          Transient: no
          Array Rank:  3
      Data:
        Dataset: Unnamed Ascii Dataset
          Type: dataset_ascii_type
          Transient: no
          Array Rank:  1

    Sub Condition: temperature
      Type: dirichlet
      Gradient:
      Data:
        Dataset: Unnamed Ascii Dataset
          Type: dataset_ascii_type
          Transient: no
          Array Rank:  1

--------------------------------------------------------------------------------

=+=+=+=+=+=+=+=+=+=+=+=+=+=+=+=+=+=+=+=+=+=+=+=+=+=+=+=+=+=+=+=+=+=+=+=+=+=+=+=+

  Source Sink

--------------------------------------------------------------------------------
          Flow Condition:   injection
                  Region:   heatpump_inject0
--------------------------------------------------------------------------------

  Flow Condition: injection
    Synchronize time with update: no
    Time units: yr
    Length units: m
      Datum:

    Sub Condition: rate
      Type: scaled volumetric rate
      Gradient:
      Data:
        Dataset: Unnamed Ascii Dataset
          Type: dataset_ascii_type
          Is transient?: yes
          Number of times:      3
          Is cyclic?: no
          Buffer:
            Rank:  2
            Dims:    1   3
            Buffer Slice Size:   0
          Array Rank:  1

    Sub Condition: temperature
      Type: dirichlet
      Gradient:
      Data:
        Dataset: Unnamed Ascii Dataset
          Type: dataset_ascii_type
          Transient: no
          Array Rank:  1

--------------------------------------------------------------------------------

 Requested processors =    32

FLOW Time Stepper
                 acceleration: on
       acceleration threshold: 5
       number of ramp entries: 5
                ramp entry #1: 2.0000
                ramp entry #2: 2.0000
                ramp entry #3: 2.0000
                ramp entry #4: 2.0000
                ramp entry #5: 2.0000
                ramp entry #6: 1.8000
                ramp entry #7: 1.6000
                ramp entry #8: 1.4000
                ramp entry #9: 1.2000
               ramp entry #10: 1.0000
               ramp entry #11: 1.0000
               ramp entry #12: 1.0000
               ramp entry #13: 1.0000
      maximum number of steps: 999999
constant time steps threshold: 5
       maximum number of cuts: 16
             reduction factor: 5.000000E-01
        maximum growth factor: 2.000000E+00

FLOW Newton Solver
                         atol: 1.000000E-50
                         rtol: 1.000000E-03
                         stol: 1.000000E-08
                         dtol: 1.000000E+04
                      maxnorm: 1.000000E+20
                    inftolres: -9.990000E+02
                    inftolupd: 1.000000E+00
                 inftolrelupd: -9.990000E+02
                 inftolsclres: -9.990000E+02
                     max iter: 50
                     min iter: 1
                         maxf: 10000
                  matrix type: baij
         precond. matrix type: baij
               inexact newton: off
            print convergence: on
   print detailed convergence: off
          check infinity norm: on

FLOW Linear Solver
                       solver: bcgs
               preconditioner: bjacobi
                         atol: 1.000000E-50
                         rtol: 1.000000E-05
                         dtol: 1.000000E+04
            maximum iteration: 10000

== TH FLOW =====================================================================
 Step      1 Time=  1.00000E-05 Dt=  1.00000E-05 [y] snes_conv_reason:   11
  newton =   1 [       1] linear =   100 [       100] cuts =  0 [   0]
  --> max chng: dpmx=   3.0017E-02 dtmpmx=   1.3414E-09

== TH FLOW =====================================================================
 Step      2 Time=  3.00000E-05 Dt=  2.00000E-05 [y] snes_conv_reason:   11
  newton =   1 [       2] linear =   117 [       217] cuts =  0 [   0]
  --> max chng: dpmx=   2.7639E-02 dtmpmx=   2.6423E-09

== TH FLOW =====================================================================
 Step      3 Time=  7.00000E-05 Dt=  4.00000E-05 [y] snes_conv_reason:   11
  newton =   1 [       3] linear =   112 [       329] cuts =  0 [   0]
  --> max chng: dpmx=   1.5577E-02 dtmpmx=   5.2350E-09

== TH FLOW =====================================================================
 Step      4 Time=  1.50000E-04 Dt=  8.00000E-05 [y] snes_conv_reason:   11
  newton =   1 [       4] linear =   124 [       453] cuts =  0 [   0]
  --> max chng: dpmx=   5.0511E-03 dtmpmx=   1.0437E-08

== TH FLOW =====================================================================
 Step      5 Time=  3.10000E-04 Dt=  1.60000E-04 [y] snes_conv_reason:   11
  newton =   1 [       5] linear =   118 [       571] cuts =  0 [   0]
  --> max chng: dpmx=   8.8960E-04 dtmpmx=   2.0863E-08

== TH FLOW =====================================================================
 Step      6 Time=  6.30000E-04 Dt=  3.20000E-04 [y] snes_conv_reason:   11
  newton =   1 [       6] linear =   119 [       690] cuts =  0 [   0]
  --> max chng: dpmx=   8.1865E-05 dtmpmx=   4.1725E-08

== TH FLOW =====================================================================
 Step      7 Time=  1.27000E-03 Dt=  6.40000E-04 [y] snes_conv_reason:   11
  newton =   1 [       7] linear =   120 [       810] cuts =  0 [   0]
  --> max chng: dpmx=   3.7265E-06 dtmpmx=   8.3450E-08

== TH FLOW =====================================================================
 Step      8 Time=  2.55000E-03 Dt=  1.28000E-03 [y] snes_conv_reason:   11
  newton =   1 [       8] linear =   133 [       943] cuts =  0 [   0]
  --> max chng: dpmx=   5.3959E-07 dtmpmx=   1.6690E-07

== TH FLOW =====================================================================
 Step      9 Time=  5.11000E-03 Dt=  2.56000E-03 [y] snes_conv_reason:   11
  newton =   1 [       9] linear =   127 [      1070] cuts =  0 [   0]
  --> max chng: dpmx=   1.0985E-06 dtmpmx=   3.3380E-07

== TH FLOW =====================================================================
 Step     10 Time=  1.02300E-02 Dt=  5.12000E-03 [y] snes_conv_reason:   11
  newton =   1 [      10] linear =   117 [      1187] cuts =  0 [   0]
  --> max chng: dpmx=   2.2511E-06 dtmpmx=   6.6760E-07

== TH FLOW =====================================================================
 Step     11 Time=  2.04700E-02 Dt=  1.02400E-02 [y] snes_conv_reason:   11
  newton =   1 [      11] linear =   123 [      1310] cuts =  0 [   0]
  --> max chng: dpmx=   4.7089E-06 dtmpmx=   1.3352E-06

== TH FLOW =====================================================================
 Step     12 Time=  4.09500E-02 Dt=  2.04800E-02 [y] snes_conv_reason:   11
  newton =   1 [      12] linear =   124 [      1434] cuts =  0 [   0]
  --> max chng: dpmx=   1.0262E-05 dtmpmx=   2.6704E-06

== TH FLOW =====================================================================
 Step     13 Time=  8.19100E-02 Dt=  4.09600E-02 [y] snes_conv_reason:   11
  newton =   1 [      13] linear =   118 [      1552] cuts =  0 [   0]
  --> max chng: dpmx=   2.3855E-05 dtmpmx=   5.3408E-06

== TH FLOW =====================================================================
 Step     14 Time=  1.00000E-01 Dt=  1.80900E-02 [y] snes_conv_reason:   11
  newton =   1 [      14] linear =   124 [      1676] cuts =  0 [   0]
  --> max chng: dpmx=   1.1200E-05 dtmpmx=   2.3588E-06

== TH FLOW =====================================================================
 Step     15 Time=  1.50000E-01 Dt=  5.00000E-02 [y] snes_conv_reason:   11
  newton =   1 [      15] linear =   122 [      1798] cuts =  0 [   0]
  --> max chng: dpmx=   3.5865E-05 dtmpmx=   6.5195E-06

== TH FLOW =====================================================================
 Step     16 Time=  2.00000E-01 Dt=  5.00000E-02 [y] snes_conv_reason:   11
  newton =   1 [      16] linear =   130 [      1928] cuts =  0 [   0]
  --> max chng: dpmx=   4.0766E-05 dtmpmx=   6.5195E-06

== TH FLOW =====================================================================
 Step     17 Time=  2.50000E-01 Dt=  5.00000E-02 [y] snes_conv_reason:    3
  newton =   3 [      19] linear =   383 [      2311] cuts =  0 [   0]
  --> max chng: dpmx=   1.7701E+03 dtmpmx=   3.5099E+00

== TH FLOW =====================================================================
 Step     18 Time=  3.00000E-01 Dt=  5.00000E-02 [y] snes_conv_reason:   11
  newton =   2 [      21] linear =   263 [      2574] cuts =  0 [   0]
  --> max chng: dpmx=   1.1132E+01 dtmpmx=   1.3113E+00

== TH FLOW =====================================================================
 Step     19 Time=  3.50000E-01 Dt=  5.00000E-02 [y] snes_conv_reason:   11
  newton =   2 [      23] linear =   264 [      2838] cuts =  0 [   0]
  --> max chng: dpmx=   5.5733E+00 dtmpmx=   8.5795E-01

== TH FLOW =====================================================================
 Step     20 Time=  4.00000E-01 Dt=  5.00000E-02 [y] snes_conv_reason:   11
  newton =   2 [      25] linear =   252 [      3090] cuts =  0 [   0]
  --> max chng: dpmx=   3.4059E+00 dtmpmx=   6.9504E-01

== TH FLOW =====================================================================
 Step     21 Time=  4.50000E-01 Dt=  5.00000E-02 [y] snes_conv_reason:   11
  newton =   2 [      27] linear =   249 [      3339] cuts =  0 [   0]
  --> max chng: dpmx=   2.5589E+00 dtmpmx=   5.6467E-01

== TH FLOW =====================================================================
 Step     22 Time=  5.00000E-01 Dt=  5.00000E-02 [y] snes_conv_reason:    3
  newton =   1 [      28] linear =   135 [      3474] cuts =  0 [   0]
  --> max chng: dpmx=   2.4681E+00 dtmpmx=   4.9959E-01

== TH FLOW =====================================================================
 Step     23 Time=  5.50000E-01 Dt=  5.00000E-02 [y] snes_conv_reason:    3
  newton =   1 [      29] linear =   138 [      3612] cuts =  0 [   0]
  --> max chng: dpmx=   2.3654E+00 dtmpmx=   4.4620E-01

== TH FLOW =====================================================================
 Step     24 Time=  6.00000E-01 Dt=  5.00000E-02 [y] snes_conv_reason:    3
  newton =   1 [      30] linear =   137 [      3749] cuts =  0 [   0]
  --> max chng: dpmx=   2.3089E+00 dtmpmx=   3.9910E-01

== TH FLOW =====================================================================
 Step     25 Time=  6.50000E-01 Dt=  5.00000E-02 [y] snes_conv_reason:    3
  newton =   1 [      31] linear =   139 [      3888] cuts =  0 [   0]
  --> max chng: dpmx=   2.2521E+00 dtmpmx=   3.7673E-01

== TH FLOW =====================================================================
 Step     26 Time=  7.00000E-01 Dt=  5.00000E-02 [y] snes_conv_reason:    3
  newton =   1 [      32] linear =   139 [      4027] cuts =  0 [   0]
  --> max chng: dpmx=   2.2094E+00 dtmpmx=   3.4500E-01

== TH FLOW =====================================================================
 Step     27 Time=  7.50000E-01 Dt=  5.00000E-02 [y] snes_conv_reason:    3
  newton =   1 [      33] linear =   134 [      4161] cuts =  0 [   0]
  --> max chng: dpmx=   2.1736E+00 dtmpmx=   3.2320E-01

== TH FLOW =====================================================================
 Step     28 Time=  8.00000E-01 Dt=  5.00000E-02 [y] snes_conv_reason:    3
  newton =   1 [      34] linear =   138 [      4299] cuts =  0 [   0]
  --> max chng: dpmx=   2.1351E+00 dtmpmx=   3.0938E-01

== TH FLOW =====================================================================
 Step     29 Time=  8.50000E-01 Dt=  5.00000E-02 [y] snes_conv_reason:    3
  newton =   1 [      35] linear =   138 [      4437] cuts =  0 [   0]
  --> max chng: dpmx=   2.1136E+00 dtmpmx=   2.8992E-01

== TH FLOW =====================================================================
 Step     30 Time=  9.00000E-01 Dt=  5.00000E-02 [y] snes_conv_reason:    3
  newton =   1 [      36] linear =   135 [      4572] cuts =  0 [   0]
  --> max chng: dpmx=   2.0795E+00 dtmpmx=   2.7482E-01

== TH FLOW =====================================================================
 Step     31 Time=  9.50000E-01 Dt=  5.00000E-02 [y] snes_conv_reason:    3
  newton =   1 [      37] linear =   133 [      4705] cuts =  0 [   0]
  --> max chng: dpmx=   2.0632E+00 dtmpmx=   2.6657E-01

== TH FLOW =====================================================================
 Step     32 Time=  1.00000E+00 Dt=  5.00000E-02 [y] snes_conv_reason:    3
  newton =   1 [      38] linear =   138 [      4843] cuts =  0 [   0]
  --> max chng: dpmx=   2.0417E+00 dtmpmx=   2.5432E-01

== TH FLOW =====================================================================
 Step     33 Time=  1.05000E+00 Dt=  5.00000E-02 [y] snes_conv_reason:    3
  newton =   1 [      39] linear =   137 [      4980] cuts =  0 [   0]
  --> max chng: dpmx=   2.0197E+00 dtmpmx=   2.4236E-01

== TH FLOW =====================================================================
 Step     34 Time=  1.10000E+00 Dt=  5.00000E-02 [y] snes_conv_reason:    3
  newton =   1 [      40] linear =   137 [      5117] cuts =  0 [   0]
  --> max chng: dpmx=   2.0059E+00 dtmpmx=   2.3631E-01

== TH FLOW =====================================================================
 Step     35 Time=  1.15000E+00 Dt=  5.00000E-02 [y] snes_conv_reason:    3
  newton =   1 [      41] linear =   134 [      5251] cuts =  0 [   0]
  --> max chng: dpmx=   1.9852E+00 dtmpmx=   2.2863E-01

== TH FLOW =====================================================================
 Step     36 Time=  1.20000E+00 Dt=  5.00000E-02 [y] snes_conv_reason:    3
  newton =   1 [      42] linear =   132 [      5383] cuts =  0 [   0]
  --> max chng: dpmx=   1.9733E+00 dtmpmx=   2.1954E-01

== TH FLOW =====================================================================
 Step     37 Time=  1.25000E+00 Dt=  5.00000E-02 [y] snes_conv_reason:    3
  newton =   1 [      43] linear =   133 [      5516] cuts =  0 [   0]
  --> max chng: dpmx=   1.9588E+00 dtmpmx=   2.1330E-01

== TH FLOW =====================================================================
 Step     38 Time=  1.30000E+00 Dt=  5.00000E-02 [y] snes_conv_reason:    3
  newton =   1 [      44] linear =   136 [      5652] cuts =  0 [   0]
  --> max chng: dpmx=   1.9423E+00 dtmpmx=   2.0865E-01

== TH FLOW =====================================================================
 Step     39 Time=  1.35000E+00 Dt=  5.00000E-02 [y] snes_conv_reason:    3
  newton =   1 [      45] linear =   139 [      5791] cuts =  0 [   0]
  --> max chng: dpmx=   1.9334E+00 dtmpmx=   2.0198E-01

== TH FLOW =====================================================================
 Step     40 Time=  1.40000E+00 Dt=  5.00000E-02 [y] snes_conv_reason:    3
  newton =   1 [      46] linear =   137 [      5928] cuts =  0 [   0]
  --> max chng: dpmx=   1.9197E+00 dtmpmx=   1.9651E-01

== TH FLOW =====================================================================
 Step     41 Time=  1.45000E+00 Dt=  5.00000E-02 [y] snes_conv_reason:    3
  newton =   1 [      47] linear =   138 [      6066] cuts =  0 [   0]
  --> max chng: dpmx=   1.9077E+00 dtmpmx=   1.9232E-01

== TH FLOW =====================================================================
 Step     42 Time=  1.50000E+00 Dt=  5.00000E-02 [y] snes_conv_reason:    3
  newton =   1 [      48] linear =   135 [      6201] cuts =  0 [   0]
  --> max chng: dpmx=   1.8990E+00 dtmpmx=   1.8806E-01

== TH FLOW =====================================================================
 Step     43 Time=  1.55000E+00 Dt=  5.00000E-02 [y] snes_conv_reason:    3
  newton =   1 [      49] linear =   139 [      6340] cuts =  0 [   0]
  --> max chng: dpmx=   1.8862E+00 dtmpmx=   1.8313E-01

== TH FLOW =====================================================================
 Step     44 Time=  1.60000E+00 Dt=  5.00000E-02 [y] snes_conv_reason:    3
  newton =   1 [      50] linear =   121 [      6461] cuts =  0 [   0]
  --> max chng: dpmx=   1.8777E+00 dtmpmx=   1.7926E-01

== TH FLOW =====================================================================
 Step     45 Time=  1.65000E+00 Dt=  5.00000E-02 [y] snes_conv_reason:    3
  newton =   1 [      51] linear =   132 [      6593] cuts =  0 [   0]
  --> max chng: dpmx=   1.8692E+00 dtmpmx=   1.7600E-01

== TH FLOW =====================================================================
 Step     46 Time=  1.70000E+00 Dt=  5.00000E-02 [y] snes_conv_reason:    3
  newton =   1 [      52] linear =   137 [      6730] cuts =  0 [   0]
  --> max chng: dpmx=   1.8561E+00 dtmpmx=   1.7217E-01

== TH FLOW =====================================================================
 Step     47 Time=  1.75000E+00 Dt=  5.00000E-02 [y] snes_conv_reason:    3
  newton =   1 [      53] linear =   137 [      6867] cuts =  0 [   0]
  --> max chng: dpmx=   1.8509E+00 dtmpmx=   1.6910E-01

== TH FLOW =====================================================================
 Step     48 Time=  1.80000E+00 Dt=  5.00000E-02 [y] snes_conv_reason:    3
  newton =   1 [      54] linear =   136 [      7003] cuts =  0 [   0]
  --> max chng: dpmx=   1.8424E+00 dtmpmx=   1.6579E-01

== TH FLOW =====================================================================
 Step     49 Time=  1.85000E+00 Dt=  5.00000E-02 [y] snes_conv_reason:    3
  newton =   1 [      55] linear =   136 [      7139] cuts =  0 [   0]
  --> max chng: dpmx=   1.8318E+00 dtmpmx=   1.6295E-01

== TH FLOW =====================================================================
 Step     50 Time=  1.90000E+00 Dt=  5.00000E-02 [y] snes_conv_reason:    3
  newton =   1 [      56] linear =   139 [      7278] cuts =  0 [   0]
  --> max chng: dpmx=   1.8265E+00 dtmpmx=   1.5974E-01

== TH FLOW =====================================================================
 Step     51 Time=  1.95000E+00 Dt=  5.00000E-02 [y] snes_conv_reason:    3
  newton =   1 [      57] linear =   140 [      7418] cuts =  0 [   0]
  --> max chng: dpmx=   1.8183E+00 dtmpmx=   1.5779E-01

== TH FLOW =====================================================================
 Step     52 Time=  2.00000E+00 Dt=  5.00000E-02 [y] snes_conv_reason:    3
  newton =   1 [      58] linear =   138 [      7556] cuts =  0 [   0]
  --> max chng: dpmx=   1.8101E+00 dtmpmx=   1.5491E-01

== TH FLOW =====================================================================
 Step     53 Time=  2.05000E+00 Dt=  5.00000E-02 [y] snes_conv_reason:    3
  newton =   1 [      59] linear =   141 [      7697] cuts =  0 [   0]
  --> max chng: dpmx=   1.8045E+00 dtmpmx=   1.5227E-01

== TH FLOW =====================================================================
 Step     54 Time=  2.10000E+00 Dt=  5.00000E-02 [y] snes_conv_reason:    3
  newton =   1 [      60] linear =   139 [      7836] cuts =  0 [   0]
  --> max chng: dpmx=   1.7965E+00 dtmpmx=   1.5018E-01

== TH FLOW =====================================================================
 Step     55 Time=  2.15000E+00 Dt=  5.00000E-02 [y] snes_conv_reason:    3
  newton =   1 [      61] linear =   141 [      7977] cuts =  0 [   0]
  --> max chng: dpmx=   1.7895E+00 dtmpmx=   1.4843E-01

== TH FLOW =====================================================================
 Step     56 Time=  2.20000E+00 Dt=  5.00000E-02 [y] snes_conv_reason:    3
  newton =   1 [      62] linear =   135 [      8112] cuts =  0 [   0]
  --> max chng: dpmx=   1.7845E+00 dtmpmx=   1.4590E-01

== TH FLOW =====================================================================
 Step     57 Time=  2.25000E+00 Dt=  5.00000E-02 [y] snes_conv_reason:    3
  newton =   1 [      63] linear =   138 [      8250] cuts =  0 [   0]
  --> max chng: dpmx=   1.7764E+00 dtmpmx=   1.4335E-01

== TH FLOW =====================================================================
 Step     58 Time=  2.30000E+00 Dt=  5.00000E-02 [y] snes_conv_reason:    3
  newton =   1 [      64] linear =   138 [      8388] cuts =  0 [   0]
  --> max chng: dpmx=   1.7709E+00 dtmpmx=   1.4211E-01

== TH FLOW =====================================================================
 Step     59 Time=  2.35000E+00 Dt=  5.00000E-02 [y] snes_conv_reason:    3
  newton =   1 [      65] linear =   138 [      8526] cuts =  0 [   0]
  --> max chng: dpmx=   1.7656E+00 dtmpmx=   1.4053E-01

== TH FLOW =====================================================================
 Step     60 Time=  2.40000E+00 Dt=  5.00000E-02 [y] snes_conv_reason:    3
  newton =   1 [      66] linear =   139 [      8665] cuts =  0 [   0]
  --> max chng: dpmx=   1.7580E+00 dtmpmx=   1.3829E-01

== TH FLOW =====================================================================
 Step     61 Time=  2.45000E+00 Dt=  5.00000E-02 [y] snes_conv_reason:    3
  newton =   1 [      67] linear =   137 [      8802] cuts =  0 [   0]
  --> max chng: dpmx=   1.7533E+00 dtmpmx=   1.3600E-01

== TH FLOW =====================================================================
 Step     62 Time=  2.50000E+00 Dt=  5.00000E-02 [y] snes_conv_reason:    3
  newton =   1 [      68] linear =   136 [      8938] cuts =  0 [   0]
  --> max chng: dpmx=   1.7481E+00 dtmpmx=   1.3519E-01

== TH FLOW =====================================================================
 Step     63 Time=  2.55000E+00 Dt=  5.00000E-02 [y] snes_conv_reason:    3
  newton =   1 [      69] linear =   132 [      9070] cuts =  0 [   0]
  --> max chng: dpmx=   1.7408E+00 dtmpmx=   1.3374E-01

== TH FLOW =====================================================================
 Step     64 Time=  2.60000E+00 Dt=  5.00000E-02 [y] snes_conv_reason:    3
  newton =   1 [      70] linear =   130 [      9200] cuts =  0 [   0]
  --> max chng: dpmx=   1.7362E+00 dtmpmx=   1.3173E-01

== TH FLOW =====================================================================
 Step     65 Time=  2.65000E+00 Dt=  5.00000E-02 [y] snes_conv_reason:    3
  newton =   1 [      71] linear =   141 [      9341] cuts =  0 [   0]
  --> max chng: dpmx=   1.7325E+00 dtmpmx=   1.2993E-01

== TH FLOW =====================================================================
 Step     66 Time=  2.70000E+00 Dt=  5.00000E-02 [y] snes_conv_reason:    3
  newton =   1 [      72] linear =   140 [      9481] cuts =  0 [   0]
  --> max chng: dpmx=   1.7250E+00 dtmpmx=   1.2916E-01

== TH FLOW =====================================================================
 Step     67 Time=  2.75000E+00 Dt=  5.00000E-02 [y] snes_conv_reason:    3
  newton =   1 [      73] linear =   139 [      9620] cuts =  0 [   0]
  --> max chng: dpmx=   1.7211E+00 dtmpmx=   1.2783E-01

== TH FLOW =====================================================================
 Step     68 Time=  2.80000E+00 Dt=  5.00000E-02 [y] snes_conv_reason:    3
  newton =   1 [      74] linear =   140 [      9760] cuts =  0 [   0]
  --> max chng: dpmx=   1.7165E+00 dtmpmx=   1.2600E-01

== TH FLOW =====================================================================
 Step     69 Time=  2.85000E+00 Dt=  5.00000E-02 [y] snes_conv_reason:    3
  newton =   1 [      75] linear =   139 [      9899] cuts =  0 [   0]
  --> max chng: dpmx=   1.7101E+00 dtmpmx=   1.2458E-01

== TH FLOW =====================================================================
 Step     70 Time=  2.90000E+00 Dt=  5.00000E-02 [y] snes_conv_reason:    3
  newton =   1 [      76] linear =   130 [     10029] cuts =  0 [   0]
  --> max chng: dpmx=   1.7065E+00 dtmpmx=   1.2385E-01

== TH FLOW =====================================================================
 Step     71 Time=  2.95000E+00 Dt=  5.00000E-02 [y] snes_conv_reason:    3
  newton =   1 [      77] linear =   134 [     10163] cuts =  0 [   0]
  --> max chng: dpmx=   1.7019E+00 dtmpmx=   1.2263E-01

== TH FLOW =====================================================================
 Step     72 Time=  3.00000E+00 Dt=  5.00000E-02 [y] snes_conv_reason:    3
  newton =   1 [      78] linear =   138 [     10301] cuts =  0 [   0]
  --> max chng: dpmx=   1.6958E+00 dtmpmx=   1.2096E-01

== TH FLOW =====================================================================
 Step     73 Time=  3.05000E+00 Dt=  5.00000E-02 [y] snes_conv_reason:    3
  newton =   1 [      79] linear =   137 [     10438] cuts =  0 [   0]
  --> max chng: dpmx=   1.6926E+00 dtmpmx=   1.1982E-01

== TH FLOW =====================================================================
 Step     74 Time=  3.10000E+00 Dt=  5.00000E-02 [y] snes_conv_reason:    3
  newton =   1 [      80] linear =   137 [     10575] cuts =  0 [   0]
  --> max chng: dpmx=   1.6881E+00 dtmpmx=   1.1912E-01

== TH FLOW =====================================================================
 Step     75 Time=  3.15000E+00 Dt=  5.00000E-02 [y] snes_conv_reason:    3
  newton =   1 [      81] linear =   139 [     10714] cuts =  0 [   0]
  --> max chng: dpmx=   1.6819E+00 dtmpmx=   1.1799E-01

== TH FLOW =====================================================================
 Step     76 Time=  3.20000E+00 Dt=  5.00000E-02 [y] snes_conv_reason:    3
  newton =   1 [      82] linear =   136 [     10850] cuts =  0 [   0]
  --> max chng: dpmx=   1.6786E+00 dtmpmx=   1.1646E-01

== TH FLOW =====================================================================
 Step     77 Time=  3.25000E+00 Dt=  5.00000E-02 [y] snes_conv_reason:    3
  newton =   1 [      83] linear =   136 [     10986] cuts =  0 [   0]
  --> max chng: dpmx=   1.6754E+00 dtmpmx=   1.1556E-01

== TH FLOW =====================================================================
 Step     78 Time=  3.30000E+00 Dt=  5.00000E-02 [y] snes_conv_reason:    3
  newton =   1 [      84] linear =   137 [     11123] cuts =  0 [   0]
  --> max chng: dpmx=   1.6692E+00 dtmpmx=   1.1489E-01

== TH FLOW =====================================================================
 Step     79 Time=  3.35000E+00 Dt=  5.00000E-02 [y] snes_conv_reason:    3
  newton =   1 [      85] linear =   125 [     11248] cuts =  0 [   0]
  --> max chng: dpmx=   1.6661E+00 dtmpmx=   1.1383E-01

== TH FLOW =====================================================================
 Step     80 Time=  3.40000E+00 Dt=  5.00000E-02 [y] snes_conv_reason:    3
  newton =   1 [      86] linear =   133 [     11381] cuts =  0 [   0]
  --> max chng: dpmx=   1.6622E+00 dtmpmx=   1.1241E-01

== TH FLOW =====================================================================
 Step     81 Time=  3.45000E+00 Dt=  5.00000E-02 [y] snes_conv_reason:    3
  newton =   1 [      87] linear =   137 [     11518] cuts =  0 [   0]
  --> max chng: dpmx=   1.6567E+00 dtmpmx=   1.1170E-01

== TH FLOW =====================================================================
 Step     82 Time=  3.50000E+00 Dt=  5.00000E-02 [y] snes_conv_reason:    3
  newton =   1 [      88] linear =   136 [     11654] cuts =  0 [   0]
  --> max chng: dpmx=   1.6540E+00 dtmpmx=   1.1106E-01

== TH FLOW =====================================================================
 Step     83 Time=  3.55000E+00 Dt=  5.00000E-02 [y] snes_conv_reason:    3
  newton =   1 [      89] linear =   137 [     11791] cuts =  0 [   0]
  --> max chng: dpmx=   1.6497E+00 dtmpmx=   1.1007E-01

== TH FLOW =====================================================================
 Step     84 Time=  3.60000E+00 Dt=  5.00000E-02 [y] snes_conv_reason:    3
  newton =   1 [      90] linear =   136 [     11927] cuts =  0 [   0]
  --> max chng: dpmx=   1.6448E+00 dtmpmx=   1.0875E-01

== TH FLOW =====================================================================
 Step     85 Time=  3.65000E+00 Dt=  5.00000E-02 [y] snes_conv_reason:    3
  newton =   1 [      91] linear =   114 [     12041] cuts =  0 [   0]
  --> max chng: dpmx=   1.6415E+00 dtmpmx=   1.0819E-01

== TH FLOW =====================================================================
 Step     86 Time=  3.70000E+00 Dt=  5.00000E-02 [y] snes_conv_reason:    3
  newton =   1 [      92] linear =   135 [     12176] cuts =  0 [   0]
  --> max chng: dpmx=   1.6383E+00 dtmpmx=   1.0758E-01

== TH FLOW =====================================================================
 Step     87 Time=  3.75000E+00 Dt=  5.00000E-02 [y] snes_conv_reason:    3
  newton =   1 [      93] linear =   132 [     12308] cuts =  0 [   0]
  --> max chng: dpmx=   1.6335E+00 dtmpmx=   1.0665E-01

== TH FLOW =====================================================================
 Step     88 Time=  3.80000E+00 Dt=  5.00000E-02 [y] snes_conv_reason:    3
  newton =   1 [      94] linear =   129 [     12437] cuts =  0 [   0]
  --> max chng: dpmx=   1.6301E+00 dtmpmx=   1.0541E-01

== TH FLOW =====================================================================
 Step     89 Time=  3.85000E+00 Dt=  5.00000E-02 [y] snes_conv_reason:    3
  newton =   1 [      95] linear =   132 [     12569] cuts =  0 [   0]
  --> max chng: dpmx=   1.6271E+00 dtmpmx=   1.0498E-01

== TH FLOW =====================================================================
 Step     90 Time=  3.90000E+00 Dt=  5.00000E-02 [y] snes_conv_reason:    3
  newton =   1 [      96] linear =   136 [     12705] cuts =  0 [   0]
  --> max chng: dpmx=   1.6222E+00 dtmpmx=   1.0439E-01

== TH FLOW =====================================================================
 Step     91 Time=  3.95000E+00 Dt=  5.00000E-02 [y] snes_conv_reason:    3
  newton =   1 [      97] linear =   136 [     12841] cuts =  0 [   0]
  --> max chng: dpmx=   1.6189E+00 dtmpmx=   1.0351E-01

== TH FLOW =====================================================================
 Step     92 Time=  4.00000E+00 Dt=  5.00000E-02 [y] snes_conv_reason:    3
  newton =   1 [      98] linear =   136 [     12977] cuts =  0 [   0]
  --> max chng: dpmx=   1.6156E+00 dtmpmx=   1.0234E-01

== TH FLOW =====================================================================
 Step     93 Time=  4.05000E+00 Dt=  5.00000E-02 [y] snes_conv_reason:    3
  newton =   1 [      99] linear =   137 [     13114] cuts =  0 [   0]
  --> max chng: dpmx=   1.6112E+00 dtmpmx=   1.0203E-01

== TH FLOW =====================================================================
 Step     94 Time=  4.10000E+00 Dt=  5.00000E-02 [y] snes_conv_reason:    3
  newton =   1 [     100] linear =   135 [     13249] cuts =  0 [   0]
  --> max chng: dpmx=   1.6082E+00 dtmpmx=   1.0146E-01

== TH FLOW =====================================================================
 Step     95 Time=  4.15000E+00 Dt=  5.00000E-02 [y] snes_conv_reason:    3
  newton =   1 [     101] linear =   136 [     13385] cuts =  0 [   0]
  --> max chng: dpmx=   1.6048E+00 dtmpmx=   1.0062E-01

== TH FLOW =====================================================================
 Step     96 Time=  4.20000E+00 Dt=  5.00000E-02 [y] snes_conv_reason:    3
  newton =   1 [     102] linear =   134 [     13519] cuts =  0 [   0]
  --> max chng: dpmx=   1.6006E+00 dtmpmx=   9.9585E-02

== TH FLOW =====================================================================
 Step     97 Time=  4.25000E+00 Dt=  5.00000E-02 [y] snes_conv_reason:    3
  newton =   1 [     103] linear =   134 [     13653] cuts =  0 [   0]
  --> max chng: dpmx=   1.5974E+00 dtmpmx=   9.9299E-02

== TH FLOW =====================================================================
 Step     98 Time=  4.30000E+00 Dt=  5.00000E-02 [y] snes_conv_reason:    3
  newton =   1 [     104] linear =   133 [     13786] cuts =  0 [   0]
  --> max chng: dpmx=   1.5944E+00 dtmpmx=   9.8750E-02

== TH FLOW =====================================================================
 Step     99 Time=  4.35000E+00 Dt=  5.00000E-02 [y] snes_conv_reason:    3
  newton =   1 [     105] linear =   133 [     13919] cuts =  0 [   0]
  --> max chng: dpmx=   1.5903E+00 dtmpmx=   9.7949E-02

== TH FLOW =====================================================================
 Step    100 Time=  4.40000E+00 Dt=  5.00000E-02 [y] snes_conv_reason:    3
  newton =   1 [     106] linear =   129 [     14048] cuts =  0 [   0]
  --> max chng: dpmx=   1.5870E+00 dtmpmx=   9.7053E-02

== TH FLOW =====================================================================
 Step    101 Time=  4.45000E+00 Dt=  5.00000E-02 [y] snes_conv_reason:    3
  newton =   1 [     107] linear =   134 [     14182] cuts =  0 [   0]
  --> max chng: dpmx=   1.5838E+00 dtmpmx=   9.6766E-02

== TH FLOW =====================================================================
 Step    102 Time=  4.50000E+00 Dt=  5.00000E-02 [y] snes_conv_reason:    3
  newton =   1 [     108] linear =   134 [     14316] cuts =  0 [   0]
  --> max chng: dpmx=   1.5802E+00 dtmpmx=   9.6233E-02

== TH FLOW =====================================================================
 Step    103 Time=  4.55000E+00 Dt=  5.00000E-02 [y] snes_conv_reason:    3
  newton =   1 [     109] linear =   132 [     14448] cuts =  0 [   0]
  --> max chng: dpmx=   1.5774E+00 dtmpmx=   9.5467E-02

== TH FLOW =====================================================================
 Step    104 Time=  4.60000E+00 Dt=  5.00000E-02 [y] snes_conv_reason:    3
  newton =   1 [     110] linear =   136 [     14584] cuts =  0 [   0]
  --> max chng: dpmx=   1.5739E+00 dtmpmx=   9.4694E-02

== TH FLOW =====================================================================
 Step    105 Time=  4.65000E+00 Dt=  5.00000E-02 [y] snes_conv_reason:    3
  newton =   1 [     111] linear =   135 [     14719] cuts =  0 [   0]
  --> max chng: dpmx=   1.5702E+00 dtmpmx=   9.4405E-02

== TH FLOW =====================================================================
 Step    106 Time=  4.70000E+00 Dt=  5.00000E-02 [y] snes_conv_reason:    3
  newton =   1 [     112] linear =   130 [     14849] cuts =  0 [   0]
  --> max chng: dpmx=   1.5664E+00 dtmpmx=   9.3888E-02

== TH FLOW =====================================================================
 Step    107 Time=  4.75000E+00 Dt=  5.00000E-02 [y] snes_conv_reason:    3
  newton =   1 [     113] linear =   135 [     14984] cuts =  0 [   0]
  --> max chng: dpmx=   1.5648E+00 dtmpmx=   9.3152E-02

== TH FLOW =====================================================================
 Step    108 Time=  4.80000E+00 Dt=  5.00000E-02 [y] snes_conv_reason:    3
  newton =   1 [     114] linear =   135 [     15119] cuts =  0 [   0]
  --> max chng: dpmx=   1.5604E+00 dtmpmx=   9.2488E-02

== TH FLOW =====================================================================
 Step    109 Time=  4.85000E+00 Dt=  5.00000E-02 [y] snes_conv_reason:    3
  newton =   1 [     115] linear =   135 [     15254] cuts =  0 [   0]
  --> max chng: dpmx=   1.5573E+00 dtmpmx=   9.2198E-02

== TH FLOW =====================================================================
 Step    110 Time=  4.90000E+00 Dt=  5.00000E-02 [y] snes_conv_reason:    3
  newton =   1 [     116] linear =   135 [     15389] cuts =  0 [   0]
  --> max chng: dpmx=   1.5543E+00 dtmpmx=   9.1695E-02

== TH FLOW =====================================================================
 Step    111 Time=  4.95000E+00 Dt=  5.00000E-02 [y] snes_conv_reason:    3
  newton =   1 [     117] linear =   126 [     15515] cuts =  0 [   0]
  --> max chng: dpmx=   1.5509E+00 dtmpmx=   9.0987E-02

== TH FLOW =====================================================================
 Step    112 Time=  5.00000E+00 Dt=  5.00000E-02 [y] snes_conv_reason:    3
  newton =   1 [     118] linear =   134 [     15649] cuts =  0 [   0]
  --> max chng: dpmx=   1.5477E+00 dtmpmx=   9.0418E-02

== TH FLOW =====================================================================
 Step    113 Time=  5.05000E+00 Dt=  5.00000E-02 [y] snes_conv_reason:    3
  newton =   1 [     119] linear =   135 [     15784] cuts =  0 [   0]
  --> max chng: dpmx=   1.5446E+00 dtmpmx=   9.0127E-02

== TH FLOW =====================================================================
 Step    114 Time=  5.10000E+00 Dt=  5.00000E-02 [y] snes_conv_reason:    3
  newton =   1 [     120] linear =   135 [     15919] cuts =  0 [   0]
  --> max chng: dpmx=   1.5421E+00 dtmpmx=   8.9637E-02

== TH FLOW =====================================================================
 Step    115 Time=  5.15000E+00 Dt=  5.00000E-02 [y] snes_conv_reason:    3
  newton =   1 [     121] linear =   133 [     16052] cuts =  0 [   0]
  --> max chng: dpmx=   1.5374E+00 dtmpmx=   8.8955E-02

== TH FLOW =====================================================================
 Step    116 Time=  5.20000E+00 Dt=  5.00000E-02 [y] snes_conv_reason:    3
  newton =   1 [     122] linear =   133 [     16185] cuts =  0 [   0]
  --> max chng: dpmx=   1.5361E+00 dtmpmx=   8.8471E-02

== TH FLOW =====================================================================
 Step    117 Time=  5.25000E+00 Dt=  5.00000E-02 [y] snes_conv_reason:    3
  newton =   1 [     123] linear =   134 [     16319] cuts =  0 [   0]
  --> max chng: dpmx=   1.5325E+00 dtmpmx=   8.8180E-02

== TH FLOW =====================================================================
 Step    118 Time=  5.30000E+00 Dt=  5.00000E-02 [y] snes_conv_reason:    3
  newton =   1 [     124] linear =   131 [     16450] cuts =  0 [   0]
  --> max chng: dpmx=   1.5287E+00 dtmpmx=   8.7701E-02

== TH FLOW =====================================================================
 Step    119 Time=  5.35000E+00 Dt=  5.00000E-02 [y] snes_conv_reason:    3
  newton =   1 [     125] linear =   137 [     16587] cuts =  0 [   0]
  --> max chng: dpmx=   1.5264E+00 dtmpmx=   8.7042E-02

== TH FLOW =====================================================================
 Step    120 Time=  5.40000E+00 Dt=  5.00000E-02 [y] snes_conv_reason:    3
  newton =   1 [     126] linear =   136 [     16723] cuts =  0 [   0]
  --> max chng: dpmx=   1.5232E+00 dtmpmx=   8.6634E-02

== TH FLOW =====================================================================
 Step    121 Time=  5.45000E+00 Dt=  5.00000E-02 [y] snes_conv_reason:    3
  newton =   1 [     127] linear =   138 [     16861] cuts =  0 [   0]
  --> max chng: dpmx=   1.5204E+00 dtmpmx=   8.6343E-02

== TH FLOW =====================================================================
 Step    122 Time=  5.50000E+00 Dt=  5.00000E-02 [y] snes_conv_reason:    3
  newton =   1 [     128] linear =   136 [     16997] cuts =  0 [   0]
  --> max chng: dpmx=   1.5173E+00 dtmpmx=   8.5875E-02

== TH FLOW =====================================================================
 Step    123 Time=  5.55000E+00 Dt=  5.00000E-02 [y] snes_conv_reason:    3
  newton =   1 [     129] linear =   136 [     17133] cuts =  0 [   0]
  --> max chng: dpmx=   1.5145E+00 dtmpmx=   8.5236E-02

== TH FLOW =====================================================================
 Step    124 Time=  5.60000E+00 Dt=  5.00000E-02 [y] snes_conv_reason:    3
  newton =   1 [     130] linear =   128 [     17261] cuts =  0 [   0]
  --> max chng: dpmx=   1.5111E+00 dtmpmx=   8.4898E-02

== TH FLOW =====================================================================
 Step    125 Time=  5.65000E+00 Dt=  5.00000E-02 [y] snes_conv_reason:    3
  newton =   1 [     131] linear =   129 [     17390] cuts =  0 [   0]
  --> max chng: dpmx=   1.5077E+00 dtmpmx=   8.4606E-02

== TH FLOW =====================================================================
 Step    126 Time=  5.70000E+00 Dt=  5.00000E-02 [y] snes_conv_reason:    3
  newton =   1 [     132] linear =   130 [     17520] cuts =  0 [   0]
  --> max chng: dpmx=   1.5058E+00 dtmpmx=   8.4148E-02

== TH FLOW =====================================================================
 Step    127 Time=  5.75000E+00 Dt=  5.00000E-02 [y] snes_conv_reason:    3
  newton =   1 [     133] linear =   134 [     17654] cuts =  0 [   0]
  --> max chng: dpmx=   1.5028E+00 dtmpmx=   8.3529E-02

== TH FLOW =====================================================================
 Step    128 Time=  5.80000E+00 Dt=  5.00000E-02 [y] snes_conv_reason:    3
  newton =   1 [     134] linear =   135 [     17789] cuts =  0 [   0]
  --> max chng: dpmx=   1.4992E+00 dtmpmx=   8.3252E-02

== TH FLOW =====================================================================
 Step    129 Time=  5.85000E+00 Dt=  5.00000E-02 [y] snes_conv_reason:    3
  newton =   1 [     135] linear =   134 [     17923] cuts =  0 [   0]
  --> max chng: dpmx=   1.4968E+00 dtmpmx=   8.2961E-02

== TH FLOW =====================================================================
 Step    130 Time=  5.90000E+00 Dt=  5.00000E-02 [y] snes_conv_reason:    3
  newton =   1 [     136] linear =   132 [     18055] cuts =  0 [   0]
  --> max chng: dpmx=   1.4937E+00 dtmpmx=   8.2511E-02

== TH FLOW =====================================================================
 Step    131 Time=  5.95000E+00 Dt=  5.00000E-02 [y] snes_conv_reason:    3
  newton =   1 [     137] linear =   137 [     18192] cuts =  0 [   0]
  --> max chng: dpmx=   1.4904E+00 dtmpmx=   8.1909E-02

== TH FLOW =====================================================================
 Step    132 Time=  6.00000E+00 Dt=  5.00000E-02 [y] snes_conv_reason:    3
  newton =   1 [     138] linear =   136 [     18328] cuts =  0 [   0]
  --> max chng: dpmx=   1.4879E+00 dtmpmx=   8.1689E-02

== TH FLOW =====================================================================
 Step    133 Time=  6.05000E+00 Dt=  5.00000E-02 [y] snes_conv_reason:    3
  newton =   1 [     139] linear =   135 [     18463] cuts =  0 [   0]
  --> max chng: dpmx=   1.4854E+00 dtmpmx=   8.1398E-02

== TH FLOW =====================================================================
 Step    134 Time=  6.10000E+00 Dt=  5.00000E-02 [y] snes_conv_reason:    3
  newton =   1 [     140] linear =   135 [     18598] cuts =  0 [   0]
  --> max chng: dpmx=   1.4816E+00 dtmpmx=   8.0957E-02

== TH FLOW =====================================================================
 Step    135 Time=  6.15000E+00 Dt=  5.00000E-02 [y] snes_conv_reason:    3
  newton =   1 [     141] linear =   127 [     18725] cuts =  0 [   0]
  --> max chng: dpmx=   1.4798E+00 dtmpmx=   8.0371E-02

== TH FLOW =====================================================================
 Step    136 Time=  6.20000E+00 Dt=  5.00000E-02 [y] snes_conv_reason:    3
  newton =   1 [     142] linear =   134 [     18859] cuts =  0 [   0]
  --> max chng: dpmx=   1.4769E+00 dtmpmx=   8.0202E-02

== TH FLOW =====================================================================
 Step    137 Time=  6.25000E+00 Dt=  5.00000E-02 [y] snes_conv_reason:    3
  newton =   1 [     143] linear =   130 [     18989] cuts =  0 [   0]
  --> max chng: dpmx=   1.4730E+00 dtmpmx=   7.9911E-02

== TH FLOW =====================================================================
 Step    138 Time=  6.30000E+00 Dt=  5.00000E-02 [y] snes_conv_reason:    3
  newton =   1 [     144] linear =   121 [     19110] cuts =  0 [   0]
  --> max chng: dpmx=   1.4712E+00 dtmpmx=   7.9478E-02

== TH FLOW =====================================================================
 Step    139 Time=  6.35000E+00 Dt=  5.00000E-02 [y] snes_conv_reason:    3
  newton =   1 [     145] linear =   125 [     19235] cuts =  0 [   0]
  --> max chng: dpmx=   1.4685E+00 dtmpmx=   7.8936E-02

== TH FLOW =====================================================================
 Step    140 Time=  6.40000E+00 Dt=  5.00000E-02 [y] snes_conv_reason:    3
  newton =   1 [     146] linear =   133 [     19368] cuts =  0 [   0]
  --> max chng: dpmx=   1.4651E+00 dtmpmx=   7.8785E-02

== TH FLOW =====================================================================
 Step    141 Time=  6.45000E+00 Dt=  5.00000E-02 [y] snes_conv_reason:    3
  newton =   1 [     147] linear =   136 [     19504] cuts =  0 [   0]
  --> max chng: dpmx=   1.4625E+00 dtmpmx=   7.8494E-02

== TH FLOW =====================================================================
 Step    142 Time=  6.50000E+00 Dt=  5.00000E-02 [y] snes_conv_reason:    3
  newton =   1 [     148] linear =   134 [     19638] cuts =  0 [   0]
  --> max chng: dpmx=   1.4602E+00 dtmpmx=   7.8068E-02

== TH FLOW =====================================================================
 Step    143 Time=  6.55000E+00 Dt=  5.00000E-02 [y] snes_conv_reason:    3
  newton =   1 [     149] linear =   135 [     19773] cuts =  0 [   0]
  --> max chng: dpmx=   1.4570E+00 dtmpmx=   7.7589E-02

== TH FLOW =====================================================================
 Step    144 Time=  6.60000E+00 Dt=  5.00000E-02 [y] snes_conv_reason:    3
  newton =   1 [     150] linear =   133 [     19906] cuts =  0 [   0]
  --> max chng: dpmx=   1.4537E+00 dtmpmx=   7.7431E-02

== TH FLOW =====================================================================
 Step    145 Time=  6.65000E+00 Dt=  5.00000E-02 [y] snes_conv_reason:    3
  newton =   1 [     151] linear =   125 [     20031] cuts =  0 [   0]
  --> max chng: dpmx=   1.4520E+00 dtmpmx=   7.7141E-02

== TH FLOW =====================================================================
 Step    146 Time=  6.70000E+00 Dt=  5.00000E-02 [y] snes_conv_reason:    3
  newton =   1 [     152] linear =   135 [     20166] cuts =  0 [   0]
  --> max chng: dpmx=   1.4490E+00 dtmpmx=   7.6721E-02

== TH FLOW =====================================================================
 Step    147 Time=  6.75000E+00 Dt=  5.00000E-02 [y] snes_conv_reason:    3
  newton =   1 [     153] linear =   127 [     20293] cuts =  0 [   0]
  --> max chng: dpmx=   1.4455E+00 dtmpmx=   7.6301E-02

== TH FLOW =====================================================================
 Step    148 Time=  6.80000E+00 Dt=  5.00000E-02 [y] snes_conv_reason:    3
  newton =   1 [     154] linear =   133 [     20426] cuts =  0 [   0]
  --> max chng: dpmx=   1.4436E+00 dtmpmx=   7.6137E-02

== TH FLOW =====================================================================
 Step    149 Time=  6.85000E+00 Dt=  5.00000E-02 [y] snes_conv_reason:    3
  newton =   1 [     155] linear =   132 [     20558] cuts =  0 [   0]
  --> max chng: dpmx=   1.4409E+00 dtmpmx=   7.5847E-02

== TH FLOW =====================================================================
 Step    150 Time=  6.90000E+00 Dt=  5.00000E-02 [y] snes_conv_reason:    3
  newton =   1 [     156] linear =   130 [     20688] cuts =  0 [   0]
  --> max chng: dpmx=   1.4377E+00 dtmpmx=   7.5434E-02

== TH FLOW =====================================================================
 Step    151 Time=  6.95000E+00 Dt=  5.00000E-02 [y] snes_conv_reason:    3
  newton =   1 [     157] linear =   129 [     20817] cuts =  0 [   0]
  --> max chng: dpmx=   1.4349E+00 dtmpmx=   7.5067E-02

== TH FLOW =====================================================================
 Step    152 Time=  7.00000E+00 Dt=  5.00000E-02 [y] snes_conv_reason:    3
  newton =   1 [     158] linear =   134 [     20951] cuts =  0 [   0]
  --> max chng: dpmx=   1.4329E+00 dtmpmx=   7.4898E-02

== TH FLOW =====================================================================
 Step    153 Time=  7.05000E+00 Dt=  5.00000E-02 [y] snes_conv_reason:    3
  newton =   1 [     159] linear =   134 [     21085] cuts =  0 [   0]
  --> max chng: dpmx=   1.4298E+00 dtmpmx=   7.4608E-02

== TH FLOW =====================================================================
 Step    154 Time=  7.10000E+00 Dt=  5.00000E-02 [y] snes_conv_reason:    3
  newton =   1 [     160] linear =   132 [     21217] cuts =  0 [   0]
  --> max chng: dpmx=   1.4270E+00 dtmpmx=   7.4200E-02

== TH FLOW =====================================================================
 Step    155 Time=  7.15000E+00 Dt=  5.00000E-02 [y] snes_conv_reason:    3
  newton =   1 [     161] linear =   125 [     21342] cuts =  0 [   0]
  --> max chng: dpmx=   1.4246E+00 dtmpmx=   7.3883E-02

== TH FLOW =====================================================================
 Step    156 Time=  7.20000E+00 Dt=  5.00000E-02 [y] snes_conv_reason:    3
  newton =   1 [     162] linear =   138 [     21480] cuts =  0 [   0]
  --> max chng: dpmx=   1.4221E+00 dtmpmx=   7.3709E-02

== TH FLOW =====================================================================
 Step    157 Time=  7.25000E+00 Dt=  5.00000E-02 [y] snes_conv_reason:    3
  newton =   1 [     163] linear =   138 [     21618] cuts =  0 [   0]
  --> max chng: dpmx=   1.4188E+00 dtmpmx=   7.3420E-02

== TH FLOW =====================================================================
 Step    158 Time=  7.30000E+00 Dt=  5.00000E-02 [y] snes_conv_reason:    3
  newton =   1 [     164] linear =   131 [     21749] cuts =  0 [   0]
  --> max chng: dpmx=   1.4166E+00 dtmpmx=   7.3018E-02

== TH FLOW =====================================================================
 Step    159 Time=  7.35000E+00 Dt=  5.00000E-02 [y] snes_conv_reason:    3
  newton =   1 [     165] linear =   132 [     21881] cuts =  0 [   0]
  --> max chng: dpmx=   1.4140E+00 dtmpmx=   7.2746E-02

== TH FLOW =====================================================================
 Step    160 Time=  7.40000E+00 Dt=  5.00000E-02 [y] snes_conv_reason:    3
  newton =   1 [     166] linear =   139 [     22020] cuts =  0 [   0]
  --> max chng: dpmx=   1.4113E+00 dtmpmx=   7.2568E-02

== TH FLOW =====================================================================
 Step    161 Time=  7.45000E+00 Dt=  5.00000E-02 [y] snes_conv_reason:    3
  newton =   1 [     167] linear =   129 [     22149] cuts =  0 [   0]
  --> max chng: dpmx=   1.4085E+00 dtmpmx=   7.2279E-02

== TH FLOW =====================================================================
 Step    162 Time=  7.50000E+00 Dt=  5.00000E-02 [y] snes_conv_reason:    3
  newton =   1 [     168] linear =   134 [     22283] cuts =  0 [   0]
  --> max chng: dpmx=   1.4062E+00 dtmpmx=   7.1882E-02

== TH FLOW =====================================================================
 Step    163 Time=  7.55000E+00 Dt=  5.00000E-02 [y] snes_conv_reason:    3
  newton =   1 [     169] linear =   134 [     22417] cuts =  0 [   0]
  --> max chng: dpmx=   1.4031E+00 dtmpmx=   7.1653E-02

== TH FLOW =====================================================================
 Step    164 Time=  7.60000E+00 Dt=  5.00000E-02 [y] snes_conv_reason:    3
  newton =   1 [     170] linear =   134 [     22551] cuts =  0 [   0]
  --> max chng: dpmx=   1.4008E+00 dtmpmx=   7.1470E-02

== TH FLOW =====================================================================
 Step    165 Time=  7.65000E+00 Dt=  5.00000E-02 [y] snes_conv_reason:    3
  newton =   1 [     171] linear =   129 [     22680] cuts =  0 [   0]
  --> max chng: dpmx=   1.3979E+00 dtmpmx=   7.1182E-02

== TH FLOW =====================================================================
 Step    166 Time=  7.70000E+00 Dt=  5.00000E-02 [y] snes_conv_reason:    3
  newton =   1 [     172] linear =   140 [     22820] cuts =  0 [   0]
  --> max chng: dpmx=   1.3960E+00 dtmpmx=   7.0790E-02

== TH FLOW =====================================================================
 Step    167 Time=  7.75000E+00 Dt=  5.00000E-02 [y] snes_conv_reason:    3
  newton =   1 [     173] linear =   137 [     22957] cuts =  0 [   0]
  --> max chng: dpmx=   1.3928E+00 dtmpmx=   7.0600E-02

== TH FLOW =====================================================================
 Step    168 Time=  7.80000E+00 Dt=  5.00000E-02 [y] snes_conv_reason:    3
  newton =   1 [     174] linear =   132 [     23089] cuts =  0 [   0]
  --> max chng: dpmx=   1.3904E+00 dtmpmx=   7.0414E-02

== TH FLOW =====================================================================
 Step    169 Time=  7.85000E+00 Dt=  5.00000E-02 [y] snes_conv_reason:    3
  newton =   1 [     175] linear =   132 [     23221] cuts =  0 [   0]
  --> max chng: dpmx=   1.3880E+00 dtmpmx=   7.0126E-02

== TH FLOW =====================================================================
 Step    170 Time=  7.90000E+00 Dt=  5.00000E-02 [y] snes_conv_reason:    3
  newton =   1 [     176] linear =   128 [     23349] cuts =  0 [   0]
  --> max chng: dpmx=   1.3853E+00 dtmpmx=   6.9739E-02

== TH FLOW =====================================================================
 Step    171 Time=  7.95000E+00 Dt=  5.00000E-02 [y] snes_conv_reason:    3
  newton =   1 [     177] linear =   130 [     23479] cuts =  0 [   0]
  --> max chng: dpmx=   1.3828E+00 dtmpmx=   6.9586E-02

== TH FLOW =====================================================================
 Step    172 Time=  8.00000E+00 Dt=  5.00000E-02 [y] snes_conv_reason:    3
  newton =   1 [     178] linear =   133 [     23612] cuts =  0 [   0]
  --> max chng: dpmx=   1.3799E+00 dtmpmx=   6.9396E-02

== TH FLOW =====================================================================
 Step    173 Time=  8.05000E+00 Dt=  5.00000E-02 [y] snes_conv_reason:    3
  newton =   1 [     179] linear =   133 [     23745] cuts =  0 [   0]
  --> max chng: dpmx=   1.3772E+00 dtmpmx=   6.9109E-02

== TH FLOW =====================================================================
 Step    174 Time=  8.10000E+00 Dt=  5.00000E-02 [y] snes_conv_reason:    3
  newton =   1 [     180] linear =   133 [     23878] cuts =  0 [   0]
  --> max chng: dpmx=   1.3750E+00 dtmpmx=   6.8726E-02

== TH FLOW =====================================================================
 Step    175 Time=  8.15000E+00 Dt=  5.00000E-02 [y] snes_conv_reason:    3
  newton =   1 [     181] linear =   134 [     24012] cuts =  0 [   0]
  --> max chng: dpmx=   1.3726E+00 dtmpmx=   6.8607E-02

== TH FLOW =====================================================================
 Step    176 Time=  8.20000E+00 Dt=  5.00000E-02 [y] snes_conv_reason:    3
  newton =   1 [     182] linear =   133 [     24145] cuts =  0 [   0]
  --> max chng: dpmx=   1.3699E+00 dtmpmx=   6.8415E-02

== TH FLOW =====================================================================
 Step    177 Time=  8.25000E+00 Dt=  5.00000E-02 [y] snes_conv_reason:    3
  newton =   1 [     183] linear =   132 [     24277] cuts =  0 [   0]
  --> max chng: dpmx=   1.3669E+00 dtmpmx=   6.8128E-02

== TH FLOW =====================================================================
 Step    178 Time=  8.30000E+00 Dt=  5.00000E-02 [y] snes_conv_reason:    3
  newton =   1 [     184] linear =   134 [     24411] cuts =  0 [   0]
  --> max chng: dpmx=   1.3647E+00 dtmpmx=   6.7765E-02

== TH FLOW =====================================================================
 Step    179 Time=  8.35000E+00 Dt=  5.00000E-02 [y] snes_conv_reason:    3
  newton =   1 [     185] linear =   136 [     24547] cuts =  0 [   0]
  --> max chng: dpmx=   1.3627E+00 dtmpmx=   6.7662E-02

== TH FLOW =====================================================================
 Step    180 Time=  8.40000E+00 Dt=  5.00000E-02 [y] snes_conv_reason:    3
  newton =   1 [     186] linear =   135 [     24682] cuts =  0 [   0]
  --> max chng: dpmx=   1.3595E+00 dtmpmx=   6.7467E-02

== TH FLOW =====================================================================
 Step    181 Time=  8.45000E+00 Dt=  5.00000E-02 [y] snes_conv_reason:    3
  newton =   1 [     187] linear =   133 [     24815] cuts =  0 [   0]
  --> max chng: dpmx=   1.3570E+00 dtmpmx=   6.7181E-02

== TH FLOW =====================================================================
 Step    182 Time=  8.50000E+00 Dt=  5.00000E-02 [y] snes_conv_reason:    3
  newton =   1 [     188] linear =   128 [     24943] cuts =  0 [   0]
  --> max chng: dpmx=   1.3547E+00 dtmpmx=   6.6858E-02

== TH FLOW =====================================================================
 Step    183 Time=  8.55000E+00 Dt=  5.00000E-02 [y] snes_conv_reason:    3
  newton =   1 [     189] linear =   130 [     25073] cuts =  0 [   0]
  --> max chng: dpmx=   1.3517E+00 dtmpmx=   6.6749E-02

== TH FLOW =====================================================================
 Step    184 Time=  8.60000E+00 Dt=  5.00000E-02 [y] snes_conv_reason:    3
  newton =   1 [     190] linear =   136 [     25209] cuts =  0 [   0]
  --> max chng: dpmx=   1.3498E+00 dtmpmx=   6.6551E-02

== TH FLOW =====================================================================
 Step    185 Time=  8.65000E+00 Dt=  5.00000E-02 [y] snes_conv_reason:    3
  newton =   1 [     191] linear =   130 [     25339] cuts =  0 [   0]
  --> max chng: dpmx=   1.3472E+00 dtmpmx=   6.6265E-02

== TH FLOW =====================================================================
 Step    186 Time=  8.70000E+00 Dt=  5.00000E-02 [y] snes_conv_reason:    3
  newton =   1 [     192] linear =   130 [     25469] cuts =  0 [   0]
  --> max chng: dpmx=   1.3447E+00 dtmpmx=   6.5981E-02

== TH FLOW =====================================================================
 Step    187 Time=  8.75000E+00 Dt=  5.00000E-02 [y] snes_conv_reason:    3
  newton =   1 [     193] linear =   132 [     25601] cuts =  0 [   0]
  --> max chng: dpmx=   1.3421E+00 dtmpmx=   6.5866E-02

== TH FLOW =====================================================================
 Step    188 Time=  8.80000E+00 Dt=  5.00000E-02 [y] snes_conv_reason:    3
  newton =   1 [     194] linear =   135 [     25736] cuts =  0 [   0]
  --> max chng: dpmx=   1.3394E+00 dtmpmx=   6.5665E-02

== TH FLOW =====================================================================
 Step    189 Time=  8.85000E+00 Dt=  5.00000E-02 [y] snes_conv_reason:    3
  newton =   1 [     195] linear =   133 [     25869] cuts =  0 [   0]
  --> max chng: dpmx=   1.3373E+00 dtmpmx=   6.5380E-02

== TH FLOW =====================================================================
 Step    190 Time=  8.90000E+00 Dt=  5.00000E-02 [y] snes_conv_reason:    3
  newton =   1 [     196] linear =   130 [     25999] cuts =  0 [   0]
  --> max chng: dpmx=   1.3340E+00 dtmpmx=   6.5131E-02

== TH FLOW =====================================================================
 Step    191 Time=  8.95000E+00 Dt=  5.00000E-02 [y] snes_conv_reason:    3
  newton =   1 [     197] linear =   132 [     26131] cuts =  0 [   0]
  --> max chng: dpmx=   1.3325E+00 dtmpmx=   6.5011E-02

== TH FLOW =====================================================================
 Step    192 Time=  9.00000E+00 Dt=  5.00000E-02 [y] snes_conv_reason:    3
  newton =   1 [     198] linear =   132 [     26263] cuts =  0 [   0]
  --> max chng: dpmx=   1.3293E+00 dtmpmx=   6.4807E-02

== TH FLOW =====================================================================
 Step    193 Time=  9.05000E+00 Dt=  5.00000E-02 [y] snes_conv_reason:    3
  newton =   1 [     199] linear =   133 [     26396] cuts =  0 [   0]
  --> max chng: dpmx=   1.3273E+00 dtmpmx=   6.4523E-02

== TH FLOW =====================================================================
 Step    194 Time=  9.10000E+00 Dt=  5.00000E-02 [y] snes_conv_reason:    3
  newton =   1 [     200] linear =   133 [     26529] cuts =  0 [   0]
  --> max chng: dpmx=   1.3246E+00 dtmpmx=   6.4307E-02

== TH FLOW =====================================================================
 Step    195 Time=  9.15000E+00 Dt=  5.00000E-02 [y] snes_conv_reason:    3
  newton =   1 [     201] linear =   134 [     26663] cuts =  0 [   0]
  --> max chng: dpmx=   1.3224E+00 dtmpmx=   6.4182E-02

== TH FLOW =====================================================================
 Step    196 Time=  9.20000E+00 Dt=  5.00000E-02 [y] snes_conv_reason:    3
  newton =   1 [     202] linear =   133 [     26796] cuts =  0 [   0]
  --> max chng: dpmx=   1.3196E+00 dtmpmx=   6.3976E-02

== TH FLOW =====================================================================
 Step    197 Time=  9.25000E+00 Dt=  5.00000E-02 [y] snes_conv_reason:    3
  newton =   1 [     203] linear =   134 [     26930] cuts =  0 [   0]
  --> max chng: dpmx=   1.3172E+00 dtmpmx=   6.3693E-02

== TH FLOW =====================================================================
 Step    198 Time=  9.30000E+00 Dt=  5.00000E-02 [y] snes_conv_reason:    3
  newton =   1 [     204] linear =   125 [     27055] cuts =  0 [   0]
  --> max chng: dpmx=   1.3152E+00 dtmpmx=   6.3508E-02

== TH FLOW =====================================================================
 Step    199 Time=  9.35000E+00 Dt=  5.00000E-02 [y] snes_conv_reason:    3
  newton =   1 [     205] linear =   134 [     27189] cuts =  0 [   0]
  --> max chng: dpmx=   1.3123E+00 dtmpmx=   6.3378E-02

== TH FLOW =====================================================================
 Step    200 Time=  9.40000E+00 Dt=  5.00000E-02 [y] snes_conv_reason:    3
  newton =   1 [     206] linear =   133 [     27322] cuts =  0 [   0]
  --> max chng: dpmx=   1.3098E+00 dtmpmx=   6.3171E-02

== TH FLOW =====================================================================
 Step    201 Time=  9.45000E+00 Dt=  5.00000E-02 [y] snes_conv_reason:    3
  newton =   1 [     207] linear =   134 [     27456] cuts =  0 [   0]
  --> max chng: dpmx=   1.3074E+00 dtmpmx=   6.2888E-02

== TH FLOW =====================================================================
 Step    202 Time=  9.50000E+00 Dt=  5.00000E-02 [y] snes_conv_reason:    3
  newton =   1 [     208] linear =   131 [     27587] cuts =  0 [   0]
  --> max chng: dpmx=   1.3051E+00 dtmpmx=   6.2733E-02

== TH FLOW =====================================================================
 Step    203 Time=  9.55000E+00 Dt=  5.00000E-02 [y] snes_conv_reason:    3
  newton =   1 [     209] linear =   130 [     27717] cuts =  0 [   0]
  --> max chng: dpmx=   1.3018E+00 dtmpmx=   6.2599E-02

== TH FLOW =====================================================================
 Step    204 Time=  9.60000E+00 Dt=  5.00000E-02 [y] snes_conv_reason:    3
  newton =   1 [     210] linear =   133 [     27850] cuts =  0 [   0]
  --> max chng: dpmx=   1.3007E+00 dtmpmx=   6.2389E-02

== TH FLOW =====================================================================
 Step    205 Time=  9.65000E+00 Dt=  5.00000E-02 [y] snes_conv_reason:    3
  newton =   1 [     211] linear =   134 [     27984] cuts =  0 [   0]
  --> max chng: dpmx=   1.2978E+00 dtmpmx=   6.2107E-02

== TH FLOW =====================================================================
 Step    206 Time=  9.70000E+00 Dt=  5.00000E-02 [y] snes_conv_reason:    3
  newton =   1 [     212] linear =   135 [     28119] cuts =  0 [   0]
  --> max chng: dpmx=   1.2950E+00 dtmpmx=   6.1980E-02

== TH FLOW =====================================================================
 Step    207 Time=  9.75000E+00 Dt=  5.00000E-02 [y] snes_conv_reason:    3
  newton =   1 [     213] linear =   135 [     28254] cuts =  0 [   0]
  --> max chng: dpmx=   1.2927E+00 dtmpmx=   6.1842E-02

== TH FLOW =====================================================================
 Step    208 Time=  9.80000E+00 Dt=  5.00000E-02 [y] snes_conv_reason:    3
  newton =   1 [     214] linear =   135 [     28389] cuts =  0 [   0]
  --> max chng: dpmx=   1.2905E+00 dtmpmx=   6.1630E-02

== TH FLOW =====================================================================
 Step    209 Time=  9.85000E+00 Dt=  5.00000E-02 [y] snes_conv_reason:    3
  newton =   1 [     215] linear =   135 [     28524] cuts =  0 [   0]
  --> max chng: dpmx=   1.2878E+00 dtmpmx=   6.1349E-02

== TH FLOW =====================================================================
 Step    210 Time=  9.90000E+00 Dt=  5.00000E-02 [y] snes_conv_reason:    3
  newton =   1 [     216] linear =   127 [     28651] cuts =  0 [   0]
  --> max chng: dpmx=   1.2849E+00 dtmpmx=   6.1248E-02

== TH FLOW =====================================================================
 Step    211 Time=  9.95000E+00 Dt=  5.00000E-02 [y] snes_conv_reason:    3
  newton =   1 [     217] linear =   131 [     28782] cuts =  0 [   0]
  --> max chng: dpmx=   1.2836E+00 dtmpmx=   6.1106E-02

== TH FLOW =====================================================================
 Step    212 Time=  1.00000E+01 Dt=  5.00000E-02 [y] snes_conv_reason:    3
  newton =   1 [     218] linear =   135 [     28917] cuts =  0 [   0]
  --> max chng: dpmx=   1.2803E+00 dtmpmx=   6.0893E-02

== TH FLOW =====================================================================
 Step    213 Time=  1.00500E+01 Dt=  5.00000E-02 [y] snes_conv_reason:    3
  newton =   1 [     219] linear =   130 [     29047] cuts =  0 [   0]
  --> max chng: dpmx=   1.2783E+00 dtmpmx=   6.0614E-02

== TH FLOW =====================================================================
 Step    214 Time=  1.01000E+01 Dt=  5.00000E-02 [y] snes_conv_reason:    3
  newton =   1 [     220] linear =   136 [     29183] cuts =  0 [   0]
  --> max chng: dpmx=   1.2754E+00 dtmpmx=   6.0537E-02

== TH FLOW =====================================================================
 Step    215 Time=  1.01500E+01 Dt=  5.00000E-02 [y] snes_conv_reason:    3
  newton =   1 [     221] linear =   132 [     29315] cuts =  0 [   0]
  --> max chng: dpmx=   1.2738E+00 dtmpmx=   6.0391E-02

== TH FLOW =====================================================================
 Step    216 Time=  1.02000E+01 Dt=  5.00000E-02 [y] snes_conv_reason:    3
  newton =   1 [     222] linear =   133 [     29448] cuts =  0 [   0]
  --> max chng: dpmx=   1.2706E+00 dtmpmx=   6.0177E-02

== TH FLOW =====================================================================
 Step    217 Time=  1.02500E+01 Dt=  5.00000E-02 [y] snes_conv_reason:    3
  newton =   1 [     223] linear =   136 [     29584] cuts =  0 [   0]
  --> max chng: dpmx=   1.2682E+00 dtmpmx=   5.9927E-02

== TH FLOW =====================================================================
 Step    218 Time=  1.03000E+01 Dt=  5.00000E-02 [y] snes_conv_reason:    3
  newton =   1 [     224] linear =   136 [     29720] cuts =  0 [   0]
  --> max chng: dpmx=   1.2662E+00 dtmpmx=   5.9845E-02

== TH FLOW =====================================================================
 Step    219 Time=  1.03500E+01 Dt=  5.00000E-02 [y] snes_conv_reason:    3
  newton =   1 [     225] linear =   138 [     29858] cuts =  0 [   0]
  --> max chng: dpmx=   1.2638E+00 dtmpmx=   5.9695E-02

== TH FLOW =====================================================================
 Step    220 Time=  1.04000E+01 Dt=  5.00000E-02 [y] snes_conv_reason:    3
  newton =   1 [     226] linear =   129 [     29987] cuts =  0 [   0]
  --> max chng: dpmx=   1.2614E+00 dtmpmx=   5.9479E-02

== TH FLOW =====================================================================
 Step    221 Time=  1.04500E+01 Dt=  5.00000E-02 [y] snes_conv_reason:    3
  newton =   1 [     227] linear =   135 [     30122] cuts =  0 [   0]
  --> max chng: dpmx=   1.2589E+00 dtmpmx=   5.9259E-02

== TH FLOW =====================================================================
 Step    222 Time=  1.05000E+01 Dt=  5.00000E-02 [y] snes_conv_reason:    3
  newton =   1 [     228] linear =   135 [     30257] cuts =  0 [   0]
  --> max chng: dpmx=   1.2565E+00 dtmpmx=   5.9171E-02

== TH FLOW =====================================================================
 Step    223 Time=  1.05500E+01 Dt=  5.00000E-02 [y] snes_conv_reason:    3
  newton =   1 [     229] linear =   132 [     30389] cuts =  0 [   0]
  --> max chng: dpmx=   1.2537E+00 dtmpmx=   5.9018E-02

== TH FLOW =====================================================================
 Step    224 Time=  1.06000E+01 Dt=  5.00000E-02 [y] snes_conv_reason:    3
  newton =   1 [     230] linear =   140 [     30529] cuts =  0 [   0]
  --> max chng: dpmx=   1.2517E+00 dtmpmx=   5.8801E-02

== TH FLOW =====================================================================
 Step    225 Time=  1.06500E+01 Dt=  5.00000E-02 [y] snes_conv_reason:    3
  newton =   1 [     231] linear =   135 [     30664] cuts =  0 [   0]
  --> max chng: dpmx=   1.2494E+00 dtmpmx=   5.8607E-02

== TH FLOW =====================================================================
 Step    226 Time=  1.07000E+01 Dt=  5.00000E-02 [y] snes_conv_reason:    3
  newton =   1 [     232] linear =   135 [     30799] cuts =  0 [   0]
  --> max chng: dpmx=   1.2468E+00 dtmpmx=   5.8514E-02

== TH FLOW =====================================================================
 Step    227 Time=  1.07500E+01 Dt=  5.00000E-02 [y] snes_conv_reason:    3
  newton =   1 [     233] linear =   134 [     30933] cuts =  0 [   0]
  --> max chng: dpmx=   1.2444E+00 dtmpmx=   5.8358E-02

== TH FLOW =====================================================================
 Step    228 Time=  1.08000E+01 Dt=  5.00000E-02 [y] snes_conv_reason:    3
  newton =   1 [     234] linear =   132 [     31065] cuts =  0 [   0]
  --> max chng: dpmx=   1.2423E+00 dtmpmx=   5.8140E-02

== TH FLOW =====================================================================
 Step    229 Time=  1.08500E+01 Dt=  5.00000E-02 [y] snes_conv_reason:    3
  newton =   1 [     235] linear =   138 [     31203] cuts =  0 [   0]
  --> max chng: dpmx=   1.2399E+00 dtmpmx=   5.7972E-02

== TH FLOW =====================================================================
 Step    230 Time=  1.09000E+01 Dt=  5.00000E-02 [y] snes_conv_reason:    3
  newton =   1 [     236] linear =   135 [     31338] cuts =  0 [   0]
  --> max chng: dpmx=   1.2370E+00 dtmpmx=   5.7874E-02

== TH FLOW =====================================================================
 Step    231 Time=  1.09500E+01 Dt=  5.00000E-02 [y] snes_conv_reason:    3
  newton =   1 [     237] linear =   132 [     31470] cuts =  0 [   0]
  --> max chng: dpmx=   1.2349E+00 dtmpmx=   5.7715E-02

== TH FLOW =====================================================================
 Step    232 Time=  1.10000E+01 Dt=  5.00000E-02 [y] snes_conv_reason:    3
  newton =   1 [     238] linear =   129 [     31599] cuts =  0 [   0]
  --> max chng: dpmx=   1.2331E+00 dtmpmx=   5.7496E-02

== TH FLOW =====================================================================
 Step    233 Time=  1.10500E+01 Dt=  5.00000E-02 [y] snes_conv_reason:    3
  newton =   1 [     239] linear =   137 [     31736] cuts =  0 [   0]
  --> max chng: dpmx=   1.2300E+00 dtmpmx=   5.7353E-02

== TH FLOW =====================================================================
 Step    234 Time=  1.11000E+01 Dt=  5.00000E-02 [y] snes_conv_reason:    3
  newton =   1 [     240] linear =   137 [     31873] cuts =  0 [   0]
  --> max chng: dpmx=   1.2278E+00 dtmpmx=   5.7251E-02

== TH FLOW =====================================================================
 Step    235 Time=  1.11500E+01 Dt=  5.00000E-02 [y] snes_conv_reason:    3
  newton =   1 [     241] linear =   129 [     32002] cuts =  0 [   0]
  --> max chng: dpmx=   1.2255E+00 dtmpmx=   5.7089E-02

== TH FLOW =====================================================================
 Step    236 Time=  1.12000E+01 Dt=  5.00000E-02 [y] snes_conv_reason:    3
  newton =   1 [     242] linear =   128 [     32130] cuts =  0 [   0]
  --> max chng: dpmx=   1.2234E+00 dtmpmx=   5.6868E-02

== TH FLOW =====================================================================
 Step    237 Time=  1.12500E+01 Dt=  5.00000E-02 [y] snes_conv_reason:    3
  newton =   1 [     243] linear =   133 [     32263] cuts =  0 [   0]
  --> max chng: dpmx=   1.2202E+00 dtmpmx=   5.6748E-02

== TH FLOW =====================================================================
 Step    238 Time=  1.13000E+01 Dt=  5.00000E-02 [y] snes_conv_reason:    3
  newton =   1 [     244] linear =   127 [     32390] cuts =  0 [   0]
  --> max chng: dpmx=   1.2189E+00 dtmpmx=   5.6642E-02

== TH FLOW =====================================================================
 Step    239 Time=  1.13500E+01 Dt=  5.00000E-02 [y] snes_conv_reason:    3
  newton =   1 [     245] linear =   132 [     32522] cuts =  0 [   0]
  --> max chng: dpmx=   1.2161E+00 dtmpmx=   5.6477E-02

== TH FLOW =====================================================================
 Step    240 Time=  1.14000E+01 Dt=  5.00000E-02 [y] snes_conv_reason:    3
  newton =   1 [     246] linear =   135 [     32657] cuts =  0 [   0]
  --> max chng: dpmx=   1.2132E+00 dtmpmx=   5.6256E-02

== TH FLOW =====================================================================
 Step    241 Time=  1.14500E+01 Dt=  5.00000E-02 [y] snes_conv_reason:    3
  newton =   1 [     247] linear =   134 [     32791] cuts =  0 [   0]
  --> max chng: dpmx=   1.2115E+00 dtmpmx=   5.6158E-02

== TH FLOW =====================================================================
 Step    242 Time=  1.15000E+01 Dt=  5.00000E-02 [y] snes_conv_reason:    3
  newton =   1 [     248] linear =   134 [     32925] cuts =  0 [   0]
  --> max chng: dpmx=   1.2089E+00 dtmpmx=   5.6048E-02

== TH FLOW =====================================================================
 Step    243 Time=  1.15500E+01 Dt=  5.00000E-02 [y] snes_conv_reason:    3
  newton =   1 [     249] linear =   133 [     33058] cuts =  0 [   0]
  --> max chng: dpmx=   1.2062E+00 dtmpmx=   5.5881E-02

== TH FLOW =====================================================================
 Step    244 Time=  1.16000E+01 Dt=  5.00000E-02 [y] snes_conv_reason:    3
  newton =   1 [     250] linear =   133 [     33191] cuts =  0 [   0]
  --> max chng: dpmx=   1.2045E+00 dtmpmx=   5.5659E-02

== TH FLOW =====================================================================
 Step    245 Time=  1.16500E+01 Dt=  5.00000E-02 [y] snes_conv_reason:    3
  newton =   1 [     251] linear =   135 [     33326] cuts =  0 [   0]
  --> max chng: dpmx=   1.2017E+00 dtmpmx=   5.5582E-02

== TH FLOW =====================================================================
 Step    246 Time=  1.17000E+01 Dt=  5.00000E-02 [y] snes_conv_reason:    3
  newton =   1 [     252] linear =   134 [     33460] cuts =  0 [   0]
  --> max chng: dpmx=   1.1995E+00 dtmpmx=   5.5468E-02

== TH FLOW =====================================================================
 Step    247 Time=  1.17500E+01 Dt=  5.00000E-02 [y] snes_conv_reason:    3
  newton =   1 [     253] linear =   132 [     33592] cuts =  0 [   0]
  --> max chng: dpmx=   1.1973E+00 dtmpmx=   5.5299E-02

== TH FLOW =====================================================================
 Step    248 Time=  1.18000E+01 Dt=  5.00000E-02 [y] snes_conv_reason:    3
  newton =   1 [     254] linear =   134 [     33726] cuts =  0 [   0]
  --> max chng: dpmx=   1.1946E+00 dtmpmx=   5.5083E-02

== TH FLOW =====================================================================
 Step    249 Time=  1.18500E+01 Dt=  5.00000E-02 [y] snes_conv_reason:    3
  newton =   1 [     255] linear =   128 [     33854] cuts =  0 [   0]
  --> max chng: dpmx=   1.1921E+00 dtmpmx=   5.5019E-02

== TH FLOW =====================================================================
 Step    250 Time=  1.19000E+01 Dt=  5.00000E-02 [y] snes_conv_reason:    3
  newton =   1 [     256] linear =   134 [     33988] cuts =  0 [   0]
  --> max chng: dpmx=   1.1902E+00 dtmpmx=   5.4901E-02

== TH FLOW =====================================================================
 Step    251 Time=  1.19500E+01 Dt=  5.00000E-02 [y] snes_conv_reason:    3
  newton =   1 [     257] linear =   133 [     34121] cuts =  0 [   0]
  --> max chng: dpmx=   1.1877E+00 dtmpmx=   5.4730E-02

== TH FLOW =====================================================================
 Step    252 Time=  1.20000E+01 Dt=  5.00000E-02 [y] snes_conv_reason:    3
  newton =   1 [     258] linear =   130 [     34251] cuts =  0 [   0]
  --> max chng: dpmx=   1.1852E+00 dtmpmx=   5.4538E-02

== TH FLOW =====================================================================
 Step    253 Time=  1.20500E+01 Dt=  5.00000E-02 [y] snes_conv_reason:    3
  newton =   1 [     259] linear =   131 [     34382] cuts =  0 [   0]
  --> max chng: dpmx=   1.1834E+00 dtmpmx=   5.4469E-02

== TH FLOW =====================================================================
 Step    254 Time=  1.21000E+01 Dt=  5.00000E-02 [y] snes_conv_reason:    3
  newton =   1 [     260] linear =   134 [     34516] cuts =  0 [   0]
  --> max chng: dpmx=   1.1804E+00 dtmpmx=   5.4347E-02

== TH FLOW =====================================================================
 Step    255 Time=  1.21500E+01 Dt=  5.00000E-02 [y] snes_conv_reason:    3
  newton =   1 [     261] linear =   130 [     34646] cuts =  0 [   0]
  --> max chng: dpmx=   1.1786E+00 dtmpmx=   5.4174E-02

== TH FLOW =====================================================================
 Step    256 Time=  1.22000E+01 Dt=  5.00000E-02 [y] snes_conv_reason:    3
  newton =   1 [     262] linear =   131 [     34777] cuts =  0 [   0]
  --> max chng: dpmx=   1.1758E+00 dtmpmx=   5.4005E-02

== TH FLOW =====================================================================
 Step    257 Time=  1.22500E+01 Dt=  5.00000E-02 [y] snes_conv_reason:    3
  newton =   1 [     263] linear =   125 [     34902] cuts =  0 [   0]
  --> max chng: dpmx=   1.1733E+00 dtmpmx=   5.3931E-02

[...]
 Step    493 Time=  2.40500E+01 Dt=  5.00000E-02 [y] snes_conv_reason:   11
  newton =   1 [     499] linear =   124 [     66053] cuts =  0 [   0]
  --> max chng: dpmx=   9.4954E-01 dtmpmx=   3.4791E-02

== TH FLOW =====================================================================
 Step    494 Time=  2.41000E+01 Dt=  5.00000E-02 [y] snes_conv_reason:   11
  newton =   1 [     500] linear =   135 [     66188] cuts =  0 [   0]
  --> max chng: dpmx=   9.5152E-01 dtmpmx=   3.4731E-02

== TH FLOW =====================================================================
 Step    495 Time=  2.41500E+01 Dt=  5.00000E-02 [y] snes_conv_reason:   11
  newton =   1 [     501] linear =   137 [     66325] cuts =  0 [   0]
  --> max chng: dpmx=   9.5354E-01 dtmpmx=   3.4660E-02

== TH FLOW =====================================================================
 Step    496 Time=  2.42000E+01 Dt=  5.00000E-02 [y] snes_conv_reason:   11
  newton =   1 [     502] linear =   130 [     66455] cuts =  0 [   0]
  --> max chng: dpmx=   9.5548E-01 dtmpmx=   3.4634E-02

== TH FLOW =====================================================================
 Step    497 Time=  2.42500E+01 Dt=  5.00000E-02 [y] snes_conv_reason:   11
  newton =   1 [     503] linear =   137 [     66592] cuts =  0 [   0]
  --> max chng: dpmx=   9.5755E-01 dtmpmx=   3.4590E-02

== TH FLOW =====================================================================
 Step    498 Time=  2.43000E+01 Dt=  5.00000E-02 [y] snes_conv_reason:   11
  newton =   1 [     504] linear =   136 [     66728] cuts =  0 [   0]
  --> max chng: dpmx=   9.5954E-01 dtmpmx=   3.4528E-02

== TH FLOW =====================================================================
 Step    499 Time=  2.43500E+01 Dt=  5.00000E-02 [y] snes_conv_reason:   11
  newton =   1 [     505] linear =   133 [     66861] cuts =  0 [   0]
  --> max chng: dpmx=   9.6141E-01 dtmpmx=   3.4467E-02

== TH FLOW =====================================================================
 Step    500 Time=  2.44000E+01 Dt=  5.00000E-02 [y] snes_conv_reason:   11
  newton =   1 [     506] linear =   131 [     66992] cuts =  0 [   0]
  --> max chng: dpmx=   9.6358E-01 dtmpmx=   3.4438E-02

== TH FLOW =====================================================================
 Step    501 Time=  2.44500E+01 Dt=  5.00000E-02 [y] snes_conv_reason:   11
  newton =   1 [     507] linear =   132 [     67124] cuts =  0 [   0]
  --> max chng: dpmx=   9.6549E-01 dtmpmx=   3.4391E-02

== TH FLOW =====================================================================
 Step    502 Time=  2.45000E+01 Dt=  5.00000E-02 [y] snes_conv_reason:   11
  newton =   1 [     508] linear =   132 [     67256] cuts =  0 [   0]
  --> max chng: dpmx=   9.6750E-01 dtmpmx=   3.4328E-02

== TH FLOW =====================================================================
 Step    503 Time=  2.45500E+01 Dt=  5.00000E-02 [y] snes_conv_reason:   11
  newton =   1 [     509] linear =   134 [     67390] cuts =  0 [   0]
  --> max chng: dpmx=   9.6954E-01 dtmpmx=   3.4275E-02

== TH FLOW =====================================================================
 Step    504 Time=  2.46000E+01 Dt=  5.00000E-02 [y] snes_conv_reason:   11
  newton =   1 [     510] linear =   129 [     67519] cuts =  0 [   0]
  --> max chng: dpmx=   9.7151E-01 dtmpmx=   3.4243E-02

== TH FLOW =====================================================================
 Step    505 Time=  2.46500E+01 Dt=  5.00000E-02 [y] snes_conv_reason:   11
  newton =   1 [     511] linear =   125 [     67644] cuts =  0 [   0]
  --> max chng: dpmx=   9.7365E-01 dtmpmx=   3.4195E-02

== TH FLOW =====================================================================
 Step    506 Time=  2.47000E+01 Dt=  5.00000E-02 [y] snes_conv_reason:   11
  newton =   1 [     512] linear =   129 [     67773] cuts =  0 [   0]
  --> max chng: dpmx=   9.7530E-01 dtmpmx=   3.4129E-02

== TH FLOW =====================================================================
 Step    507 Time=  2.47500E+01 Dt=  5.00000E-02 [y] snes_conv_reason:   11
  newton =   1 [     513] linear =   135 [     67908] cuts =  0 [   0]
  --> max chng: dpmx=   9.7759E-01 dtmpmx=   3.4085E-02

== TH FLOW =====================================================================
 Step    508 Time=  2.48000E+01 Dt=  5.00000E-02 [y] snes_conv_reason:   11
  newton =   1 [     514] linear =   131 [     68039] cuts =  0 [   0]
  --> max chng: dpmx=   9.7950E-01 dtmpmx=   3.4051E-02

== TH FLOW =====================================================================
 Step    509 Time=  2.48500E+01 Dt=  5.00000E-02 [y] snes_conv_reason:   11
  newton =   1 [     515] linear =   121 [     68160] cuts =  0 [   0]
  --> max chng: dpmx=   9.8152E-01 dtmpmx=   3.4000E-02

== TH FLOW =====================================================================
 Step    510 Time=  2.49000E+01 Dt=  5.00000E-02 [y] snes_conv_reason:   11
  newton =   1 [     516] linear =   131 [     68291] cuts =  0 [   0]
  --> max chng: dpmx=   9.8358E-01 dtmpmx=   3.3932E-02

== TH FLOW =====================================================================
 Step    511 Time=  2.49500E+01 Dt=  5.00000E-02 [y] snes_conv_reason:   11
  newton =   1 [     517] linear =   129 [     68420] cuts =  0 [   0]
  --> max chng: dpmx=   9.8548E-01 dtmpmx=   3.3896E-02

== TH FLOW =====================================================================
 Step    512 Time=  2.50000E+01 Dt=  5.00000E-02 [y] snes_conv_reason:   11
  newton =   1 [     518] linear =   128 [     68548] cuts =  0 [   0]
  --> max chng: dpmx=   9.8750E-01 dtmpmx=   3.3860E-02

== TH FLOW =====================================================================
 Step    513 Time=  2.50500E+01 Dt=  5.00000E-02 [y] snes_conv_reason:   11
  newton =   1 [     519] linear =   130 [     68678] cuts =  0 [   0]
  --> max chng: dpmx=   9.8954E-01 dtmpmx=   3.3807E-02

== TH FLOW =====================================================================
 Step    514 Time=  2.51000E+01 Dt=  5.00000E-02 [y] snes_conv_reason:   11
  newton =   1 [     520] linear =   130 [     68808] cuts =  0 [   0]
  --> max chng: dpmx=   9.9148E-01 dtmpmx=   3.3737E-02

== TH FLOW =====================================================================
 Step    515 Time=  2.51500E+01 Dt=  5.00000E-02 [y] snes_conv_reason:   11
  newton =   1 [     521] linear =   130 [     68938] cuts =  0 [   0]
  --> max chng: dpmx=   9.9370E-01 dtmpmx=   3.3710E-02

== TH FLOW =====================================================================
 Step    516 Time=  2.52000E+01 Dt=  5.00000E-02 [y] snes_conv_reason:   11
  newton =   1 [     522] linear =   132 [     69070] cuts =  0 [   0]
  --> max chng: dpmx=   9.9561E-01 dtmpmx=   3.3671E-02

== TH FLOW =====================================================================
 Step    517 Time=  2.52500E+01 Dt=  5.00000E-02 [y] snes_conv_reason:   11
  newton =   1 [     523] linear =   134 [     69204] cuts =  0 [   0]
  --> max chng: dpmx=   9.9758E-01 dtmpmx=   3.3616E-02

== TH FLOW =====================================================================
 Step    518 Time=  2.53000E+01 Dt=  5.00000E-02 [y] snes_conv_reason:   11
  newton =   1 [     524] linear =   128 [     69332] cuts =  0 [   0]
  --> max chng: dpmx=   9.9951E-01 dtmpmx=   3.3549E-02

== TH FLOW =====================================================================
 Step    519 Time=  2.53500E+01 Dt=  5.00000E-02 [y] snes_conv_reason:    3
  newton =   1 [     525] linear =   130 [     69462] cuts =  0 [   0]
  --> max chng: dpmx=   1.0017E+00 dtmpmx=   3.3525E-02

== TH FLOW =====================================================================
 Step    520 Time=  2.54000E+01 Dt=  5.00000E-02 [y] snes_conv_reason:    3
  newton =   1 [     526] linear =   129 [     69591] cuts =  0 [   0]
  --> max chng: dpmx=   1.0036E+00 dtmpmx=   3.3484E-02

== TH FLOW =====================================================================
 Step    521 Time=  2.54500E+01 Dt=  5.00000E-02 [y] snes_conv_reason:    3
  newton =   1 [     527] linear =   129 [     69720] cuts =  0 [   0]
  --> max chng: dpmx=   1.0058E+00 dtmpmx=   3.3426E-02

== TH FLOW =====================================================================
 Step    522 Time=  2.55000E+01 Dt=  5.00000E-02 [y] snes_conv_reason:    3
  newton =   1 [     528] linear =   128 [     69848] cuts =  0 [   0]
  --> max chng: dpmx=   1.0075E+00 dtmpmx=   3.3369E-02

== TH FLOW =====================================================================
 Step    523 Time=  2.55500E+01 Dt=  5.00000E-02 [y] snes_conv_reason:    3
  newton =   1 [     529] linear =   134 [     69982] cuts =  0 [   0]
  --> max chng: dpmx=   1.0096E+00 dtmpmx=   3.3341E-02

== TH FLOW =====================================================================
 Step    524 Time=  2.56000E+01 Dt=  5.00000E-02 [y] snes_conv_reason:    3
  newton =   1 [     530] linear =   133 [     70115] cuts =  0 [   0]
  --> max chng: dpmx=   1.0117E+00 dtmpmx=   3.3298E-02

== TH FLOW =====================================================================
 Step    525 Time=  2.56500E+01 Dt=  5.00000E-02 [y] snes_conv_reason:    3
  newton =   1 [     531] linear =   129 [     70244] cuts =  0 [   0]
  --> max chng: dpmx=   1.0137E+00 dtmpmx=   3.3239E-02

== TH FLOW =====================================================================
 Step    526 Time=  2.57000E+01 Dt=  5.00000E-02 [y] snes_conv_reason:    3
  newton =   1 [     532] linear =   126 [     70370] cuts =  0 [   0]
  --> max chng: dpmx=   1.0158E+00 dtmpmx=   3.3189E-02

== TH FLOW =====================================================================
 Step    527 Time=  2.57500E+01 Dt=  5.00000E-02 [y] snes_conv_reason:    3
  newton =   1 [     533] linear =   126 [     70496] cuts =  0 [   0]
  --> max chng: dpmx=   1.0177E+00 dtmpmx=   3.3160E-02

== TH FLOW =====================================================================
 Step    528 Time=  2.58000E+01 Dt=  5.00000E-02 [y] snes_conv_reason:    3
  newton =   1 [     534] linear =   135 [     70631] cuts =  0 [   0]
  --> max chng: dpmx=   1.0198E+00 dtmpmx=   3.3114E-02

== TH FLOW =====================================================================
 Step    529 Time=  2.58500E+01 Dt=  5.00000E-02 [y] snes_conv_reason:    3
  newton =   1 [     535] linear =   135 [     70766] cuts =  0 [   0]
  --> max chng: dpmx=   1.0219E+00 dtmpmx=   3.3053E-02

== TH FLOW =====================================================================
 Step    530 Time=  2.59000E+01 Dt=  5.00000E-02 [y] snes_conv_reason:    3
  newton =   1 [     536] linear =   135 [     70901] cuts =  0 [   0]
  --> max chng: dpmx=   1.0237E+00 dtmpmx=   3.3012E-02

== TH FLOW =====================================================================
 Step    531 Time=  2.59500E+01 Dt=  5.00000E-02 [y] snes_conv_reason:    3
  newton =   1 [     537] linear =   122 [     71023] cuts =  0 [   0]
  --> max chng: dpmx=   1.0259E+00 dtmpmx=   3.2980E-02

== TH FLOW =====================================================================
 Step    532 Time=  2.60000E+01 Dt=  5.00000E-02 [y] snes_conv_reason:    3
  newton =   1 [     538] linear =   132 [     71155] cuts =  0 [   0]
  --> max chng: dpmx=   1.0278E+00 dtmpmx=   3.2932E-02

== TH FLOW =====================================================================
 Step    533 Time=  2.60500E+01 Dt=  5.00000E-02 [y] snes_conv_reason:    3
  newton =   1 [     539] linear =   132 [     71287] cuts =  0 [   0]
  --> max chng: dpmx=   1.0299E+00 dtmpmx=   3.2869E-02

== TH FLOW =====================================================================
 Step    534 Time=  2.61000E+01 Dt=  5.00000E-02 [y] snes_conv_reason:    3
  newton =   1 [     540] linear =   132 [     71419] cuts =  0 [   0]
  --> max chng: dpmx=   1.0319E+00 dtmpmx=   3.2836E-02

== TH FLOW =====================================================================
 Step    535 Time=  2.61500E+01 Dt=  5.00000E-02 [y] snes_conv_reason:    3
  newton =   1 [     541] linear =   131 [     71550] cuts =  0 [   0]
  --> max chng: dpmx=   1.0338E+00 dtmpmx=   3.2801E-02

== TH FLOW =====================================================================
 Step    536 Time=  2.62000E+01 Dt=  5.00000E-02 [y] snes_conv_reason:    3
  newton =   1 [     542] linear =   127 [     71677] cuts =  0 [   0]
  --> max chng: dpmx=   1.0359E+00 dtmpmx=   3.2751E-02

== TH FLOW =====================================================================
 Step    537 Time=  2.62500E+01 Dt=  5.00000E-02 [y] snes_conv_reason:    3
  newton =   1 [     543] linear =   132 [     71809] cuts =  0 [   0]
  --> max chng: dpmx=   1.0381E+00 dtmpmx=   3.2686E-02

== TH FLOW =====================================================================
 Step    538 Time=  2.63000E+01 Dt=  5.00000E-02 [y] snes_conv_reason:    3
  newton =   1 [     544] linear =   131 [     71940] cuts =  0 [   0]
  --> max chng: dpmx=   1.0399E+00 dtmpmx=   3.2661E-02

== TH FLOW =====================================================================
 Step    539 Time=  2.63500E+01 Dt=  5.00000E-02 [y] snes_conv_reason:    3
  newton =   1 [     545] linear =   132 [     72072] cuts =  0 [   0]
  --> max chng: dpmx=   1.0420E+00 dtmpmx=   3.2624E-02

== TH FLOW =====================================================================
 Step    540 Time=  2.64000E+01 Dt=  5.00000E-02 [y] snes_conv_reason:    3
  newton =   1 [     546] linear =   132 [     72204] cuts =  0 [   0]
  --> max chng: dpmx=   1.0440E+00 dtmpmx=   3.2573E-02

== TH FLOW =====================================================================
 Step    541 Time=  2.64500E+01 Dt=  5.00000E-02 [y] snes_conv_reason:    3
  newton =   1 [     547] linear =   135 [     72339] cuts =  0 [   0]
  --> max chng: dpmx=   1.0464E+00 dtmpmx=   3.2512E-02

== TH FLOW =====================================================================
 Step    542 Time=  2.65000E+01 Dt=  5.00000E-02 [y] snes_conv_reason:    3
  newton =   1 [     548] linear =   132 [     72471] cuts =  0 [   0]
  --> max chng: dpmx=   1.0481E+00 dtmpmx=   3.2488E-02

== TH FLOW =====================================================================
 Step    543 Time=  2.65500E+01 Dt=  5.00000E-02 [y] snes_conv_reason:    3
  newton =   1 [     549] linear =   133 [     72604] cuts =  0 [   0]
  --> max chng: dpmx=   1.0500E+00 dtmpmx=   3.2449E-02

== TH FLOW =====================================================================
 Step    544 Time=  2.66000E+01 Dt=  5.00000E-02 [y] snes_conv_reason:    3
  newton =   1 [     550] linear =   132 [     72736] cuts =  0 [   0]
  --> max chng: dpmx=   1.0522E+00 dtmpmx=   3.2395E-02

== TH FLOW =====================================================================
 Step    545 Time=  2.66500E+01 Dt=  5.00000E-02 [y] snes_conv_reason:    3
  newton =   1 [     551] linear =   132 [     72868] cuts =  0 [   0]
  --> max chng: dpmx=   1.0543E+00 dtmpmx=   3.2343E-02

== TH FLOW =====================================================================
 Step    546 Time=  2.67000E+01 Dt=  5.00000E-02 [y] snes_conv_reason:    3
  newton =   1 [     552] linear =   132 [     73000] cuts =  0 [   0]
  --> max chng: dpmx=   1.0563E+00 dtmpmx=   3.2317E-02

== TH FLOW =====================================================================
 Step    547 Time=  2.67500E+01 Dt=  5.00000E-02 [y] snes_conv_reason:    3
  newton =   1 [     553] linear =   130 [     73130] cuts =  0 [   0]
  --> max chng: dpmx=   1.0584E+00 dtmpmx=   3.2275E-02

== TH FLOW =====================================================================
 Step    548 Time=  2.68000E+01 Dt=  5.00000E-02 [y] snes_conv_reason:    3
  newton =   1 [     554] linear =   130 [     73260] cuts =  0 [   0]
  --> max chng: dpmx=   1.0601E+00 dtmpmx=   3.2219E-02

== TH FLOW =====================================================================
 Step    549 Time=  2.68500E+01 Dt=  5.00000E-02 [y] snes_conv_reason:    3
  newton =   1 [     555] linear =   130 [     73390] cuts =  0 [   0]
  --> max chng: dpmx=   1.0624E+00 dtmpmx=   3.2175E-02

== TH FLOW =====================================================================
 Step    550 Time=  2.69000E+01 Dt=  5.00000E-02 [y] snes_conv_reason:    3
  newton =   1 [     556] linear =   127 [     73517] cuts =  0 [   0]
  --> max chng: dpmx=   1.0647E+00 dtmpmx=   3.2146E-02

== TH FLOW =====================================================================
 Step    551 Time=  2.69500E+01 Dt=  5.00000E-02 [y] snes_conv_reason:    3
  newton =   1 [     557] linear =   132 [     73649] cuts =  0 [   0]
  --> max chng: dpmx=   1.0662E+00 dtmpmx=   3.2103E-02

== TH FLOW =====================================================================
 Step    552 Time=  2.70000E+01 Dt=  5.00000E-02 [y] snes_conv_reason:    3
  newton =   1 [     558] linear =   132 [     73781] cuts =  0 [   0]
  --> max chng: dpmx=   1.0685E+00 dtmpmx=   3.2045E-02

== TH FLOW =====================================================================
 Step    553 Time=  2.70500E+01 Dt=  5.00000E-02 [y] snes_conv_reason:    3
  newton =   1 [     559] linear =   132 [     73913] cuts =  0 [   0]
  --> max chng: dpmx=   1.0706E+00 dtmpmx=   3.2008E-02

== TH FLOW =====================================================================
 Step    554 Time=  2.71000E+01 Dt=  5.00000E-02 [y] snes_conv_reason:    3
  newton =   1 [     560] linear =   131 [     74044] cuts =  0 [   0]
  --> max chng: dpmx=   1.0727E+00 dtmpmx=   3.1978E-02

== TH FLOW =====================================================================
 Step    555 Time=  2.71500E+01 Dt=  5.00000E-02 [y] snes_conv_reason:    3
  newton =   1 [     561] linear =   130 [     74174] cuts =  0 [   0]
  --> max chng: dpmx=   1.0745E+00 dtmpmx=   3.1932E-02

== TH FLOW =====================================================================
 Step    556 Time=  2.72000E+01 Dt=  5.00000E-02 [y] snes_conv_reason:    3
  newton =   1 [     562] linear =   134 [     74308] cuts =  0 [   0]
  --> max chng: dpmx=   1.0766E+00 dtmpmx=   3.1873E-02

== TH FLOW =====================================================================
 Step    557 Time=  2.72500E+01 Dt=  5.00000E-02 [y] snes_conv_reason:    3
  newton =   1 [     563] linear =   126 [     74434] cuts =  0 [   0]
  --> max chng: dpmx=   1.0787E+00 dtmpmx=   3.1843E-02

== TH FLOW =====================================================================
 Step    558 Time=  2.73000E+01 Dt=  5.00000E-02 [y] snes_conv_reason:    3
  newton =   1 [     564] linear =   128 [     74562] cuts =  0 [   0]
  --> max chng: dpmx=   1.0810E+00 dtmpmx=   3.1810E-02

== TH FLOW =====================================================================
 Step    559 Time=  2.73500E+01 Dt=  5.00000E-02 [y] snes_conv_reason:    3
  newton =   1 [     565] linear =   126 [     74688] cuts =  0 [   0]
  --> max chng: dpmx=   1.0827E+00 dtmpmx=   3.1763E-02

== TH FLOW =====================================================================
 Step    560 Time=  2.74000E+01 Dt=  5.00000E-02 [y] snes_conv_reason:    3
  newton =   1 [     566] linear =   130 [     74818] cuts =  0 [   0]
  --> max chng: dpmx=   1.0849E+00 dtmpmx=   3.1701E-02

== TH FLOW =====================================================================
 Step    561 Time=  2.74500E+01 Dt=  5.00000E-02 [y] snes_conv_reason:    3
  newton =   1 [     567] linear =   128 [     74946] cuts =  0 [   0]
  --> max chng: dpmx=   1.0869E+00 dtmpmx=   3.1679E-02

== TH FLOW =====================================================================
 Step    562 Time=  2.75000E+01 Dt=  5.00000E-02 [y] snes_conv_reason:    3
  newton =   1 [     568] linear =   127 [     75073] cuts =  0 [   0]
  --> max chng: dpmx=   1.0888E+00 dtmpmx=   3.1644E-02

 Wall Clock Time:  1.0770E+02 [sec]   1.7949E+00 [min]   2.9916E-02 [hr]
