
===================
  PFLOTRAN v3.0.1
===================

 Extent of Gridded Domain
  X: 2.5000000000000000 - 97.500000000000000
  Y: 2.5000000000000000 - 1277.5000000000000
  Z: 2.5000000000000000 - 2.5000000000000000


=+=+=+=+=+=+=+=+=+=+=+=+=+=+=+=+=+=+=+=+=+=+=+=+=+=+=+=+=+=+=+=+=+=+=+=+=+=+=+=+

  Initial Condition

--------------------------------------------------------------------------------
          Flow Condition:   initial
                  Region:   all
--------------------------------------------------------------------------------

  Flow Condition: initial
    Synchronize time with update: no
    Time units: yr
    Length units: m
      Datum:
        Dataset: Unnamed Ascii Dataset
          Type: dataset_ascii_type
          Transient: no
          Array Rank:  3

    Sub Condition: pressure
      Type: hydrostatic
      Gradient:
        Dataset: Unnamed Ascii Dataset
          Type: dataset_ascii_type
          Transient: no
          Array Rank:  3
      Data:
        Dataset: Unnamed Ascii Dataset
          Type: dataset_ascii_type
          Transient: no
          Array Rank:  1

    Sub Condition: temperature
      Type: dirichlet
      Gradient:
      Data:
        Dataset: Unnamed Ascii Dataset
          Type: dataset_ascii_type
          Transient: no
          Array Rank:  1

--------------------------------------------------------------------------------

=+=+=+=+=+=+=+=+=+=+=+=+=+=+=+=+=+=+=+=+=+=+=+=+=+=+=+=+=+=+=+=+=+=+=+=+=+=+=+=+

  Boundary Condition

--------------------------------------------------------------------------------
          Flow Condition:   initial
                  Region:   north
--------------------------------------------------------------------------------

  Flow Condition: initial
    Synchronize time with update: no
    Time units: yr
    Length units: m
      Datum:
        Dataset: Unnamed Ascii Dataset
          Type: dataset_ascii_type
          Transient: no
          Array Rank:  3

    Sub Condition: pressure
      Type: hydrostatic
      Gradient:
        Dataset: Unnamed Ascii Dataset
          Type: dataset_ascii_type
          Transient: no
          Array Rank:  3
      Data:
        Dataset: Unnamed Ascii Dataset
          Type: dataset_ascii_type
          Transient: no
          Array Rank:  1

    Sub Condition: temperature
      Type: dirichlet
      Gradient:
      Data:
        Dataset: Unnamed Ascii Dataset
          Type: dataset_ascii_type
          Transient: no
          Array Rank:  1

--------------------------------------------------------------------------------

=+=+=+=+=+=+=+=+=+=+=+=+=+=+=+=+=+=+=+=+=+=+=+=+=+=+=+=+=+=+=+=+=+=+=+=+=+=+=+=+

  Boundary Condition

--------------------------------------------------------------------------------
          Flow Condition:   initial
                  Region:   south
--------------------------------------------------------------------------------

  Flow Condition: initial
    Synchronize time with update: no
    Time units: yr
    Length units: m
      Datum:
        Dataset: Unnamed Ascii Dataset
          Type: dataset_ascii_type
          Transient: no
          Array Rank:  3

    Sub Condition: pressure
      Type: hydrostatic
      Gradient:
        Dataset: Unnamed Ascii Dataset
          Type: dataset_ascii_type
          Transient: no
          Array Rank:  3
      Data:
        Dataset: Unnamed Ascii Dataset
          Type: dataset_ascii_type
          Transient: no
          Array Rank:  1

    Sub Condition: temperature
      Type: dirichlet
      Gradient:
      Data:
        Dataset: Unnamed Ascii Dataset
          Type: dataset_ascii_type
          Transient: no
          Array Rank:  1

--------------------------------------------------------------------------------

=+=+=+=+=+=+=+=+=+=+=+=+=+=+=+=+=+=+=+=+=+=+=+=+=+=+=+=+=+=+=+=+=+=+=+=+=+=+=+=+

  Source Sink

--------------------------------------------------------------------------------
          Flow Condition:   injection
                  Region:   heatpump_inject0
--------------------------------------------------------------------------------

  Flow Condition: injection
    Synchronize time with update: no
    Time units: yr
    Length units: m
      Datum:

    Sub Condition: rate
      Type: scaled volumetric rate
      Gradient:
      Data:
        Dataset: Unnamed Ascii Dataset
          Type: dataset_ascii_type
          Is transient?: yes
          Number of times:      3
          Is cyclic?: no
          Buffer:
            Rank:  2
            Dims:    1   3
            Buffer Slice Size:   0
          Array Rank:  1

    Sub Condition: temperature
      Type: dirichlet
      Gradient:
      Data:
        Dataset: Unnamed Ascii Dataset
          Type: dataset_ascii_type
          Transient: no
          Array Rank:  1

--------------------------------------------------------------------------------

 Requested processors =    32

FLOW Time Stepper
                 acceleration: on
       acceleration threshold: 5
       number of ramp entries: 5
                ramp entry #1: 2.0000
                ramp entry #2: 2.0000
                ramp entry #3: 2.0000
                ramp entry #4: 2.0000
                ramp entry #5: 2.0000
                ramp entry #6: 1.8000
                ramp entry #7: 1.6000
                ramp entry #8: 1.4000
                ramp entry #9: 1.2000
               ramp entry #10: 1.0000
               ramp entry #11: 1.0000
               ramp entry #12: 1.0000
               ramp entry #13: 1.0000
      maximum number of steps: 999999
constant time steps threshold: 5
       maximum number of cuts: 16
             reduction factor: 5.000000E-01
        maximum growth factor: 2.000000E+00

FLOW Newton Solver
                         atol: 1.000000E-50
                         rtol: 1.000000E-03
                         stol: 1.000000E-08
                         dtol: 1.000000E+04
                      maxnorm: 1.000000E+20
                    inftolres: -9.990000E+02
                    inftolupd: 1.000000E+00
                 inftolrelupd: -9.990000E+02
                 inftolsclres: -9.990000E+02
                     max iter: 50
                     min iter: 1
                         maxf: 10000
                  matrix type: baij
         precond. matrix type: baij
               inexact newton: off
            print convergence: on
   print detailed convergence: off
          check infinity norm: on

FLOW Linear Solver
                       solver: bcgs
               preconditioner: bjacobi
                         atol: 1.000000E-50
                         rtol: 1.000000E-05
                         dtol: 1.000000E+04
            maximum iteration: 10000

== TH FLOW =====================================================================
 Step      1 Time=  1.00000E-05 Dt=  1.00000E-05 [y] snes_conv_reason:   11
  newton =   1 [       1] linear =   116 [       116] cuts =  0 [   0]
  --> max chng: dpmx=   9.1545E-02 dtmpmx=   1.5940E-08

== TH FLOW =====================================================================
 Step      2 Time=  3.00000E-05 Dt=  2.00000E-05 [y] snes_conv_reason:   11
  newton =   1 [       2] linear =   125 [       241] cuts =  0 [   0]
  --> max chng: dpmx=   1.5066E-02 dtmpmx=   3.1670E-08

== TH FLOW =====================================================================
 Step      3 Time=  7.00000E-05 Dt=  4.00000E-05 [y] snes_conv_reason:   11
  newton =   1 [       3] linear =   123 [       364] cuts =  0 [   0]
  --> max chng: dpmx=   1.2563E-03 dtmpmx=   6.3305E-08

== TH FLOW =====================================================================
 Step      4 Time=  1.50000E-04 Dt=  8.00000E-05 [y] snes_conv_reason:   11
  newton =   1 [       4] linear =   122 [       486] cuts =  0 [   0]
  --> max chng: dpmx=   5.3063E-05 dtmpmx=   1.2661E-07

== TH FLOW =====================================================================
 Step      5 Time=  3.10000E-04 Dt=  1.60000E-04 [y] snes_conv_reason:   11
  newton =   1 [       5] linear =   133 [       619] cuts =  0 [   0]
  --> max chng: dpmx=   9.3831E-07 dtmpmx=   2.5322E-07

== TH FLOW =====================================================================
 Step      6 Time=  6.30000E-04 Dt=  3.20000E-04 [y] snes_conv_reason:   11
  newton =   1 [       6] linear =   126 [       745] cuts =  0 [   0]
  --> max chng: dpmx=   1.9555E-06 dtmpmx=   5.0643E-07

== TH FLOW =====================================================================
 Step      7 Time=  1.27000E-03 Dt=  6.40000E-04 [y] snes_conv_reason:   11
  newton =   1 [       7] linear =   128 [       873] cuts =  0 [   0]
  --> max chng: dpmx=   4.0276E-06 dtmpmx=   1.0129E-06

== TH FLOW =====================================================================
 Step      8 Time=  2.55000E-03 Dt=  1.28000E-03 [y] snes_conv_reason:   11
  newton =   1 [       8] linear =   124 [       997] cuts =  0 [   0]
  --> max chng: dpmx=   8.5153E-06 dtmpmx=   2.0257E-06

== TH FLOW =====================================================================
 Step      9 Time=  5.11000E-03 Dt=  2.56000E-03 [y] snes_conv_reason:   11
  newton =   1 [       9] linear =   124 [      1121] cuts =  0 [   0]
  --> max chng: dpmx=   1.8912E-05 dtmpmx=   4.0515E-06

== TH FLOW =====================================================================
 Step     10 Time=  1.02300E-02 Dt=  5.12000E-03 [y] snes_conv_reason:   11
  newton =   1 [      10] linear =   124 [      1245] cuts =  0 [   0]
  --> max chng: dpmx=   4.5289E-05 dtmpmx=   8.1029E-06

== TH FLOW =====================================================================
 Step     11 Time=  2.04700E-02 Dt=  1.02400E-02 [y] snes_conv_reason:   11
  newton =   1 [      11] linear =   122 [      1367] cuts =  0 [   0]
  --> max chng: dpmx=   1.2010E-04 dtmpmx=   1.6206E-05

== TH FLOW =====================================================================
 Step     12 Time=  4.09500E-02 Dt=  2.04800E-02 [y] snes_conv_reason:   11
  newton =   1 [      12] linear =   130 [      1497] cuts =  0 [   0]
  --> max chng: dpmx=   3.5639E-04 dtmpmx=   3.2412E-05

== TH FLOW =====================================================================
 Step     13 Time=  8.19100E-02 Dt=  4.09600E-02 [y] snes_conv_reason:   11
  newton =   1 [      13] linear =   136 [      1633] cuts =  0 [   0]
  --> max chng: dpmx=   1.1619E-03 dtmpmx=   6.4824E-05

== TH FLOW =====================================================================
 Step     14 Time=  1.00000E-01 Dt=  1.80900E-02 [y] snes_conv_reason:   11
  newton =   1 [      14] linear =   126 [      1759] cuts =  0 [   0]
  --> max chng: dpmx=   6.0174E-04 dtmpmx=   2.8629E-05

== TH FLOW =====================================================================
 Step     15 Time=  1.50000E-01 Dt=  5.00000E-02 [y] snes_conv_reason:   11
  newton =   1 [      15] linear =   137 [      1896] cuts =  0 [   0]
  --> max chng: dpmx=   2.3079E-03 dtmpmx=   7.9130E-05

== TH FLOW =====================================================================
 Step     16 Time=  2.00000E-01 Dt=  5.00000E-02 [y] snes_conv_reason:   11
  newton =   1 [      16] linear =   133 [      2029] cuts =  0 [   0]
  --> max chng: dpmx=   2.9382E-03 dtmpmx=   7.9131E-05

== TH FLOW =====================================================================
 Step     17 Time=  2.50000E-01 Dt=  5.00000E-02 [y] snes_conv_reason:   11
  newton =   3 [      19] linear =   411 [      2440] cuts =  0 [   0]
  --> max chng: dpmx=   1.9705E+02 dtmpmx=   2.2704E+00

== TH FLOW =====================================================================
 Step     18 Time=  3.00000E-01 Dt=  5.00000E-02 [y] snes_conv_reason:   11
  newton =   2 [      21] linear =   279 [      2719] cuts =  0 [   0]
  --> max chng: dpmx=   2.2145E+00 dtmpmx=   8.8058E-01

== TH FLOW =====================================================================
 Step     19 Time=  3.50000E-01 Dt=  5.00000E-02 [y] snes_conv_reason:   11
  newton =   2 [      23] linear =   269 [      2988] cuts =  0 [   0]
  --> max chng: dpmx=   2.0460E+00 dtmpmx=   6.3704E-01

== TH FLOW =====================================================================
 Step     20 Time=  4.00000E-01 Dt=  5.00000E-02 [y] snes_conv_reason:   11
  newton =   2 [      25] linear =   267 [      3255] cuts =  0 [   0]
  --> max chng: dpmx=   1.9495E+00 dtmpmx=   5.1914E-01

== TH FLOW =====================================================================
 Step     21 Time=  4.50000E-01 Dt=  5.00000E-02 [y] snes_conv_reason:   11
  newton =   2 [      27] linear =   274 [      3529] cuts =  0 [   0]
  --> max chng: dpmx=   1.8814E+00 dtmpmx=   4.4480E-01

== TH FLOW =====================================================================
 Step     22 Time=  5.00000E-01 Dt=  5.00000E-02 [y] snes_conv_reason:   11
  newton =   2 [      29] linear =   265 [      3794] cuts =  0 [   0]
  --> max chng: dpmx=   1.8264E+00 dtmpmx=   3.9479E-01

== TH FLOW =====================================================================
 Step     23 Time=  5.50000E-01 Dt=  5.00000E-02 [y] snes_conv_reason:   11
  newton =   2 [      31] linear =   268 [      4062] cuts =  0 [   0]
  --> max chng: dpmx=   1.7789E+00 dtmpmx=   3.5556E-01

== TH FLOW =====================================================================
 Step     24 Time=  6.00000E-01 Dt=  5.00000E-02 [y] snes_conv_reason:   11
  newton =   2 [      33] linear =   275 [      4337] cuts =  0 [   0]
  --> max chng: dpmx=   1.7359E+00 dtmpmx=   3.2600E-01

== TH FLOW =====================================================================
 Step     25 Time=  6.50000E-01 Dt=  5.00000E-02 [y] snes_conv_reason:    3
  newton =   1 [      34] linear =   134 [      4471] cuts =  0 [   0]
  --> max chng: dpmx=   1.6950E+00 dtmpmx=   3.0109E-01

== TH FLOW =====================================================================
 Step     26 Time=  7.00000E-01 Dt=  5.00000E-02 [y] snes_conv_reason:    3
  newton =   1 [      35] linear =   130 [      4601] cuts =  0 [   0]
  --> max chng: dpmx=   1.6596E+00 dtmpmx=   2.8078E-01

== TH FLOW =====================================================================
 Step     27 Time=  7.50000E-01 Dt=  5.00000E-02 [y] snes_conv_reason:    3
  newton =   1 [      36] linear =   131 [      4732] cuts =  0 [   0]
  --> max chng: dpmx=   1.6229E+00 dtmpmx=   2.6306E-01

== TH FLOW =====================================================================
 Step     28 Time=  8.00000E-01 Dt=  5.00000E-02 [y] snes_conv_reason:    3
  newton =   1 [      37] linear =   127 [      4859] cuts =  0 [   0]
  --> max chng: dpmx=   1.5881E+00 dtmpmx=   2.4786E-01

== TH FLOW =====================================================================
 Step     29 Time=  8.50000E-01 Dt=  5.00000E-02 [y] snes_conv_reason:    3
  newton =   1 [      38] linear =   131 [      4990] cuts =  0 [   0]
  --> max chng: dpmx=   1.5545E+00 dtmpmx=   2.3444E-01

== TH FLOW =====================================================================
 Step     30 Time=  9.00000E-01 Dt=  5.00000E-02 [y] snes_conv_reason:    3
  newton =   1 [      39] linear =   135 [      5125] cuts =  0 [   0]
  --> max chng: dpmx=   1.5217E+00 dtmpmx=   2.2248E-01

== TH FLOW =====================================================================
 Step     31 Time=  9.50000E-01 Dt=  5.00000E-02 [y] snes_conv_reason:    3
  newton =   1 [      40] linear =   128 [      5253] cuts =  0 [   0]
  --> max chng: dpmx=   1.4893E+00 dtmpmx=   2.1188E-01

== TH FLOW =====================================================================
 Step     32 Time=  1.00000E+00 Dt=  5.00000E-02 [y] snes_conv_reason:    3
  newton =   1 [      41] linear =   130 [      5383] cuts =  0 [   0]
  --> max chng: dpmx=   1.4583E+00 dtmpmx=   2.0215E-01

== TH FLOW =====================================================================
 Step     33 Time=  1.05000E+00 Dt=  5.00000E-02 [y] snes_conv_reason:    3
  newton =   1 [      42] linear =   132 [      5515] cuts =  0 [   0]
  --> max chng: dpmx=   1.4269E+00 dtmpmx=   1.9352E-01

== TH FLOW =====================================================================
 Step     34 Time=  1.10000E+00 Dt=  5.00000E-02 [y] snes_conv_reason:    3
  newton =   1 [      43] linear =   131 [      5646] cuts =  0 [   0]
  --> max chng: dpmx=   1.3963E+00 dtmpmx=   1.8540E-01

== TH FLOW =====================================================================
 Step     35 Time=  1.15000E+00 Dt=  5.00000E-02 [y] snes_conv_reason:    3
  newton =   1 [      44] linear =   131 [      5777] cuts =  0 [   0]
  --> max chng: dpmx=   1.3663E+00 dtmpmx=   1.7820E-01

== TH FLOW =====================================================================
 Step     36 Time=  1.20000E+00 Dt=  5.00000E-02 [y] snes_conv_reason:    3
  newton =   1 [      45] linear =   135 [      5912] cuts =  0 [   0]
  --> max chng: dpmx=   1.3355E+00 dtmpmx=   1.7131E-01

== TH FLOW =====================================================================
 Step     37 Time=  1.25000E+00 Dt=  5.00000E-02 [y] snes_conv_reason:    3
  newton =   1 [      46] linear =   128 [      6040] cuts =  0 [   0]
  --> max chng: dpmx=   1.3064E+00 dtmpmx=   1.6519E-01

== TH FLOW =====================================================================
 Step     38 Time=  1.30000E+00 Dt=  5.00000E-02 [y] snes_conv_reason:    3
  newton =   1 [      47] linear =   125 [      6165] cuts =  0 [   0]
  --> max chng: dpmx=   1.2768E+00 dtmpmx=   1.5930E-01

== TH FLOW =====================================================================
 Step     39 Time=  1.35000E+00 Dt=  5.00000E-02 [y] snes_conv_reason:    3
  newton =   1 [      48] linear =   131 [      6296] cuts =  0 [   0]
  --> max chng: dpmx=   1.2479E+00 dtmpmx=   1.5398E-01

== TH FLOW =====================================================================
 Step     40 Time=  1.40000E+00 Dt=  5.00000E-02 [y] snes_conv_reason:    3
  newton =   1 [      49] linear =   132 [      6428] cuts =  0 [   0]
  --> max chng: dpmx=   1.2191E+00 dtmpmx=   1.4888E-01

== TH FLOW =====================================================================
 Step     41 Time=  1.45000E+00 Dt=  5.00000E-02 [y] snes_conv_reason:    3
  newton =   1 [      50] linear =   131 [      6559] cuts =  0 [   0]
  --> max chng: dpmx=   1.1901E+00 dtmpmx=   1.4420E-01

== TH FLOW =====================================================================
 Step     42 Time=  1.50000E+00 Dt=  5.00000E-02 [y] snes_conv_reason:    3
  newton =   1 [      51] linear =   130 [      6689] cuts =  0 [   0]
  --> max chng: dpmx=   1.1622E+00 dtmpmx=   1.3974E-01

== TH FLOW =====================================================================
 Step     43 Time=  1.55000E+00 Dt=  5.00000E-02 [y] snes_conv_reason:    3
  newton =   1 [      52] linear =   130 [      6819] cuts =  0 [   0]
  --> max chng: dpmx=   1.1335E+00 dtmpmx=   1.3558E-01

== TH FLOW =====================================================================
 Step     44 Time=  1.60000E+00 Dt=  5.00000E-02 [y] snes_conv_reason:    3
  newton =   1 [      53] linear =   125 [      6944] cuts =  0 [   0]
  --> max chng: dpmx=   1.1057E+00 dtmpmx=   1.3164E-01

== TH FLOW =====================================================================
 Step     45 Time=  1.65000E+00 Dt=  5.00000E-02 [y] snes_conv_reason:    3
  newton =   1 [      54] linear =   128 [      7072] cuts =  0 [   0]
  --> max chng: dpmx=   1.0770E+00 dtmpmx=   1.2792E-01

== TH FLOW =====================================================================
 Step     46 Time=  1.70000E+00 Dt=  5.00000E-02 [y] snes_conv_reason:    3
  newton =   1 [      55] linear =   129 [      7201] cuts =  0 [   0]
  --> max chng: dpmx=   1.0505E+00 dtmpmx=   1.2442E-01

== TH FLOW =====================================================================
 Step     47 Time=  1.75000E+00 Dt=  5.00000E-02 [y] snes_conv_reason:    3
  newton =   1 [      56] linear =   129 [      7330] cuts =  0 [   0]
  --> max chng: dpmx=   1.0221E+00 dtmpmx=   1.2106E-01

== TH FLOW =====================================================================
 Step     48 Time=  1.80000E+00 Dt=  5.00000E-02 [y] snes_conv_reason:   11
  newton =   1 [      57] linear =   126 [      7456] cuts =  0 [   0]
  --> max chng: dpmx=   9.9496E-01 dtmpmx=   1.1793E-01

== TH FLOW =====================================================================
 Step     49 Time=  1.85000E+00 Dt=  5.00000E-02 [y] snes_conv_reason:   11
  newton =   1 [      58] linear =   126 [      7582] cuts =  0 [   0]
  --> max chng: dpmx=   9.6740E-01 dtmpmx=   1.1489E-01

== TH FLOW =====================================================================
 Step     50 Time=  1.90000E+00 Dt=  5.00000E-02 [y] snes_conv_reason:   11
  newton =   1 [      59] linear =   127 [      7709] cuts =  0 [   0]
  --> max chng: dpmx=   9.4015E-01 dtmpmx=   1.1207E-01

== TH FLOW =====================================================================
 Step     51 Time=  1.95000E+00 Dt=  5.00000E-02 [y] snes_conv_reason:   11
  newton =   1 [      60] linear =   127 [      7836] cuts =  0 [   0]
  --> max chng: dpmx=   9.1293E-01 dtmpmx=   1.0931E-01

== TH FLOW =====================================================================
 Step     52 Time=  2.00000E+00 Dt=  5.00000E-02 [y] snes_conv_reason:   11
  newton =   1 [      61] linear =   130 [      7966] cuts =  0 [   0]
  --> max chng: dpmx=   8.8582E-01 dtmpmx=   1.0676E-01

== TH FLOW =====================================================================
 Step     53 Time=  2.05000E+00 Dt=  5.00000E-02 [y] snes_conv_reason:   11
  newton =   1 [      62] linear =   129 [      8095] cuts =  0 [   0]
  --> max chng: dpmx=   8.5898E-01 dtmpmx=   1.0424E-01

== TH FLOW =====================================================================
 Step     54 Time=  2.10000E+00 Dt=  5.00000E-02 [y] snes_conv_reason:   11
  newton =   1 [      63] linear =   128 [      8223] cuts =  0 [   0]
  --> max chng: dpmx=   8.3243E-01 dtmpmx=   1.0191E-01

== TH FLOW =====================================================================
 Step     55 Time=  2.15000E+00 Dt=  5.00000E-02 [y] snes_conv_reason:   11
  newton =   1 [      64] linear =   128 [      8351] cuts =  0 [   0]
  --> max chng: dpmx=   8.1817E-01 dtmpmx=   9.9612E-02

== TH FLOW =====================================================================
 Step     56 Time=  2.20000E+00 Dt=  5.00000E-02 [y] snes_conv_reason:   11
  newton =   1 [      65] linear =   127 [      8478] cuts =  0 [   0]
  --> max chng: dpmx=   8.3639E-01 dtmpmx=   9.7467E-02

== TH FLOW =====================================================================
 Step     57 Time=  2.25000E+00 Dt=  5.00000E-02 [y] snes_conv_reason:   11
  newton =   1 [      66] linear =   128 [      8606] cuts =  0 [   0]
  --> max chng: dpmx=   8.5492E-01 dtmpmx=   9.5370E-02

== TH FLOW =====================================================================
 Step     58 Time=  2.30000E+00 Dt=  5.00000E-02 [y] snes_conv_reason:   11
  newton =   1 [      67] linear =   134 [      8740] cuts =  0 [   0]
  --> max chng: dpmx=   8.7360E-01 dtmpmx=   9.3388E-02

== TH FLOW =====================================================================
 Step     59 Time=  2.35000E+00 Dt=  5.00000E-02 [y] snes_conv_reason:   11
  newton =   1 [      68] linear =   130 [      8870] cuts =  0 [   0]
  --> max chng: dpmx=   8.9235E-01 dtmpmx=   9.1465E-02

== TH FLOW =====================================================================
 Step     60 Time=  2.40000E+00 Dt=  5.00000E-02 [y] snes_conv_reason:   11
  newton =   1 [      69] linear =   134 [      9004] cuts =  0 [   0]
  --> max chng: dpmx=   9.1102E-01 dtmpmx=   8.9627E-02

== TH FLOW =====================================================================
 Step     61 Time=  2.45000E+00 Dt=  5.00000E-02 [y] snes_conv_reason:   11
  newton =   1 [      70] linear =   136 [      9140] cuts =  0 [   0]
  --> max chng: dpmx=   9.2980E-01 dtmpmx=   8.7858E-02

== TH FLOW =====================================================================
 Step     62 Time=  2.50000E+00 Dt=  5.00000E-02 [y] snes_conv_reason:   11
  newton =   1 [      71] linear =   131 [      9271] cuts =  0 [   0]
  --> max chng: dpmx=   9.4880E-01 dtmpmx=   8.6149E-02

== TH FLOW =====================================================================
 Step     63 Time=  2.55000E+00 Dt=  5.00000E-02 [y] snes_conv_reason:   11
  newton =   1 [      72] linear =   127 [      9398] cuts =  0 [   0]
  --> max chng: dpmx=   9.6799E-01 dtmpmx=   8.4517E-02

== TH FLOW =====================================================================
 Step     64 Time=  2.60000E+00 Dt=  5.00000E-02 [y] snes_conv_reason:   11
  newton =   1 [      73] linear =   124 [      9522] cuts =  0 [   0]
  --> max chng: dpmx=   9.8669E-01 dtmpmx=   8.2924E-02

== TH FLOW =====================================================================
 Step     65 Time=  2.65000E+00 Dt=  5.00000E-02 [y] snes_conv_reason:    3
  newton =   1 [      74] linear =   129 [      9651] cuts =  0 [   0]
  --> max chng: dpmx=   1.0060E+00 dtmpmx=   8.1414E-02

== TH FLOW =====================================================================
 Step     66 Time=  2.70000E+00 Dt=  5.00000E-02 [y] snes_conv_reason:    3
  newton =   1 [      75] linear =   130 [      9781] cuts =  0 [   0]
  --> max chng: dpmx=   1.0250E+00 dtmpmx=   7.9926E-02

== TH FLOW =====================================================================
 Step     67 Time=  2.75000E+00 Dt=  5.00000E-02 [y] snes_conv_reason:    3
  newton =   1 [      76] linear =   128 [      9909] cuts =  0 [   0]
  --> max chng: dpmx=   1.0443E+00 dtmpmx=   7.8526E-02

== TH FLOW =====================================================================
 Step     68 Time=  2.80000E+00 Dt=  5.00000E-02 [y] snes_conv_reason:    3
  newton =   1 [      77] linear =   124 [     10033] cuts =  0 [   0]
  --> max chng: dpmx=   1.0635E+00 dtmpmx=   7.7132E-02

== TH FLOW =====================================================================
 Step     69 Time=  2.85000E+00 Dt=  5.00000E-02 [y] snes_conv_reason:    3
  newton =   1 [      78] linear =   120 [     10153] cuts =  0 [   0]
  --> max chng: dpmx=   1.0828E+00 dtmpmx=   7.5830E-02

== TH FLOW =====================================================================
 Step     70 Time=  2.90000E+00 Dt=  5.00000E-02 [y] snes_conv_reason:    3
  newton =   1 [      79] linear =   128 [     10281] cuts =  0 [   0]
  --> max chng: dpmx=   1.1020E+00 dtmpmx=   7.4530E-02

== TH FLOW =====================================================================
 Step     71 Time=  2.95000E+00 Dt=  5.00000E-02 [y] snes_conv_reason:    3
  newton =   1 [      80] linear =   128 [     10409] cuts =  0 [   0]
  --> max chng: dpmx=   1.1215E+00 dtmpmx=   7.3310E-02

== TH FLOW =====================================================================
 Step     72 Time=  3.00000E+00 Dt=  5.00000E-02 [y] snes_conv_reason:    3
  newton =   1 [      81] linear =   115 [     10524] cuts =  0 [   0]
  --> max chng: dpmx=   1.1408E+00 dtmpmx=   7.2097E-02

== TH FLOW =====================================================================
 Step     73 Time=  3.05000E+00 Dt=  5.00000E-02 [y] snes_conv_reason:    3
  newton =   1 [      82] linear =   123 [     10647] cuts =  0 [   0]
  --> max chng: dpmx=   1.1602E+00 dtmpmx=   7.0948E-02

== TH FLOW =====================================================================
 Step     74 Time=  3.10000E+00 Dt=  5.00000E-02 [y] snes_conv_reason:    3
  newton =   1 [      83] linear =   123 [     10770] cuts =  0 [   0]
  --> max chng: dpmx=   1.1796E+00 dtmpmx=   6.9815E-02

== TH FLOW =====================================================================
 Step     75 Time=  3.15000E+00 Dt=  5.00000E-02 [y] snes_conv_reason:    3
  newton =   1 [      84] linear =   122 [     10892] cuts =  0 [   0]
  --> max chng: dpmx=   1.1988E+00 dtmpmx=   6.8731E-02

== TH FLOW =====================================================================
 Step     76 Time=  3.20000E+00 Dt=  5.00000E-02 [y] snes_conv_reason:    3
  newton =   1 [      85] linear =   126 [     11018] cuts =  0 [   0]
  --> max chng: dpmx=   1.2180E+00 dtmpmx=   6.7670E-02

== TH FLOW =====================================================================
 Step     77 Time=  3.25000E+00 Dt=  5.00000E-02 [y] snes_conv_reason:    3
  newton =   1 [      86] linear =   124 [     11142] cuts =  0 [   0]
  --> max chng: dpmx=   1.2372E+00 dtmpmx=   6.6645E-02

== TH FLOW =====================================================================
 Step     78 Time=  3.30000E+00 Dt=  5.00000E-02 [y] snes_conv_reason:    3
  newton =   1 [      87] linear =   132 [     11274] cuts =  0 [   0]
  --> max chng: dpmx=   1.2563E+00 dtmpmx=   6.5651E-02

== TH FLOW =====================================================================
 Step     79 Time=  3.35000E+00 Dt=  5.00000E-02 [y] snes_conv_reason:    3
  newton =   1 [      88] linear =   123 [     11397] cuts =  0 [   0]
  --> max chng: dpmx=   1.2750E+00 dtmpmx=   6.4681E-02

== TH FLOW =====================================================================
 Step     80 Time=  3.40000E+00 Dt=  5.00000E-02 [y] snes_conv_reason:    3
  newton =   1 [      89] linear =   124 [     11521] cuts =  0 [   0]
  --> max chng: dpmx=   1.2936E+00 dtmpmx=   6.3747E-02

== TH FLOW =====================================================================
 Step     81 Time=  3.45000E+00 Dt=  5.00000E-02 [y] snes_conv_reason:    3
  newton =   1 [      90] linear =   118 [     11639] cuts =  0 [   0]
  --> max chng: dpmx=   1.3114E+00 dtmpmx=   6.2828E-02

== TH FLOW =====================================================================
 Step     82 Time=  3.50000E+00 Dt=  5.00000E-02 [y] snes_conv_reason:    3
  newton =   1 [      91] linear =   125 [     11764] cuts =  0 [   0]
  --> max chng: dpmx=   1.3291E+00 dtmpmx=   6.1949E-02

== TH FLOW =====================================================================
 Step     83 Time=  3.55000E+00 Dt=  5.00000E-02 [y] snes_conv_reason:    3
  newton =   1 [      92] linear =   124 [     11888] cuts =  0 [   0]
  --> max chng: dpmx=   1.3459E+00 dtmpmx=   6.1076E-02

== TH FLOW =====================================================================
 Step     84 Time=  3.60000E+00 Dt=  5.00000E-02 [y] snes_conv_reason:    3
  newton =   1 [      93] linear =   120 [     12008] cuts =  0 [   0]
  --> max chng: dpmx=   1.3619E+00 dtmpmx=   6.0249E-02

== TH FLOW =====================================================================
 Step     85 Time=  3.65000E+00 Dt=  5.00000E-02 [y] snes_conv_reason:    3
  newton =   1 [      94] linear =   125 [     12133] cuts =  0 [   0]
  --> max chng: dpmx=   1.3768E+00 dtmpmx=   5.9419E-02

== TH FLOW =====================================================================
 Step     86 Time=  3.70000E+00 Dt=  5.00000E-02 [y] snes_conv_reason:    3
  newton =   1 [      95] linear =   126 [     12259] cuts =  0 [   0]
  --> max chng: dpmx=   1.3906E+00 dtmpmx=   5.8638E-02

== TH FLOW =====================================================================
 Step     87 Time=  3.75000E+00 Dt=  5.00000E-02 [y] snes_conv_reason:    3
  newton =   1 [      96] linear =   123 [     12382] cuts =  0 [   0]
  --> max chng: dpmx=   1.4026E+00 dtmpmx=   5.7854E-02

== TH FLOW =====================================================================
 Step     88 Time=  3.80000E+00 Dt=  5.00000E-02 [y] snes_conv_reason:    3
  newton =   1 [      97] linear =   120 [     12502] cuts =  0 [   0]
  --> max chng: dpmx=   1.4131E+00 dtmpmx=   5.7111E-02

== TH FLOW =====================================================================
 Step     89 Time=  3.85000E+00 Dt=  5.00000E-02 [y] snes_conv_reason:    3
  newton =   1 [      98] linear =   118 [     12620] cuts =  0 [   0]
  --> max chng: dpmx=   1.4212E+00 dtmpmx=   5.6370E-02

== TH FLOW =====================================================================
 Step     90 Time=  3.90000E+00 Dt=  5.00000E-02 [y] snes_conv_reason:    3
  newton =   1 [      99] linear =   119 [     12739] cuts =  0 [   0]
  --> max chng: dpmx=   1.4264E+00 dtmpmx=   5.5660E-02

== TH FLOW =====================================================================
 Step     91 Time=  3.95000E+00 Dt=  5.00000E-02 [y] snes_conv_reason:    3
  newton =   1 [     100] linear =   119 [     12858] cuts =  0 [   0]
  --> max chng: dpmx=   1.4296E+00 dtmpmx=   5.4959E-02

== TH FLOW =====================================================================
 Step     92 Time=  4.00000E+00 Dt=  5.00000E-02 [y] snes_conv_reason:    3
  newton =   1 [     101] linear =   120 [     12978] cuts =  0 [   0]
  --> max chng: dpmx=   1.4285E+00 dtmpmx=   5.4281E-02

== TH FLOW =====================================================================
 Step     93 Time=  4.05000E+00 Dt=  5.00000E-02 [y] snes_conv_reason:    3
  newton =   1 [     102] linear =   125 [     13103] cuts =  0 [   0]
  --> max chng: dpmx=   1.4245E+00 dtmpmx=   5.3616E-02

== TH FLOW =====================================================================
 Step     94 Time=  4.10000E+00 Dt=  5.00000E-02 [y] snes_conv_reason:    3
  newton =   1 [     103] linear =   115 [     13218] cuts =  0 [   0]
  --> max chng: dpmx=   1.4166E+00 dtmpmx=   5.2968E-02

== TH FLOW =====================================================================
 Step     95 Time=  4.15000E+00 Dt=  5.00000E-02 [y] snes_conv_reason:    3
  newton =   1 [     104] linear =   121 [     13339] cuts =  0 [   0]
  --> max chng: dpmx=   1.4039E+00 dtmpmx=   5.2338E-02

== TH FLOW =====================================================================
 Step     96 Time=  4.20000E+00 Dt=  5.00000E-02 [y] snes_conv_reason:    3
  newton =   1 [     105] linear =   121 [     13460] cuts =  0 [   0]
  --> max chng: dpmx=   1.3870E+00 dtmpmx=   5.1717E-02

== TH FLOW =====================================================================
 Step     97 Time=  4.25000E+00 Dt=  5.00000E-02 [y] snes_conv_reason:    3
  newton =   1 [     106] linear =   123 [     13583] cuts =  0 [   0]
  --> max chng: dpmx=   1.3654E+00 dtmpmx=   5.1118E-02

== TH FLOW =====================================================================
 Step     98 Time=  4.30000E+00 Dt=  5.00000E-02 [y] snes_conv_reason:    3
  newton =   1 [     107] linear =   123 [     13706] cuts =  0 [   0]
  --> max chng: dpmx=   1.3390E+00 dtmpmx=   5.0523E-02

== TH FLOW =====================================================================
 Step     99 Time=  4.35000E+00 Dt=  5.00000E-02 [y] snes_conv_reason:    3
  newton =   1 [     108] linear =   129 [     13835] cuts =  0 [   0]
  --> max chng: dpmx=   1.3072E+00 dtmpmx=   4.9953E-02

== TH FLOW =====================================================================
 Step    100 Time=  4.40000E+00 Dt=  5.00000E-02 [y] snes_conv_reason:    3
  newton =   1 [     109] linear =   125 [     13960] cuts =  0 [   0]
  --> max chng: dpmx=   1.2711E+00 dtmpmx=   4.9383E-02

== TH FLOW =====================================================================
 Step    101 Time=  4.45000E+00 Dt=  5.00000E-02 [y] snes_conv_reason:    3
  newton =   1 [     110] linear =   124 [     14084] cuts =  0 [   0]
  --> max chng: dpmx=   1.2299E+00 dtmpmx=   4.8840E-02

== TH FLOW =====================================================================
 Step    102 Time=  4.50000E+00 Dt=  5.00000E-02 [y] snes_conv_reason:    3
  newton =   1 [     111] linear =   129 [     14213] cuts =  0 [   0]
  --> max chng: dpmx=   1.1844E+00 dtmpmx=   4.8294E-02

== TH FLOW =====================================================================
 Step    103 Time=  4.55000E+00 Dt=  5.00000E-02 [y] snes_conv_reason:    3
  newton =   1 [     112] linear =   129 [     14342] cuts =  0 [   0]
  --> max chng: dpmx=   1.1347E+00 dtmpmx=   4.7776E-02

== TH FLOW =====================================================================
 Step    104 Time=  4.60000E+00 Dt=  5.00000E-02 [y] snes_conv_reason:    3
  newton =   1 [     113] linear =   131 [     14473] cuts =  0 [   0]
  --> max chng: dpmx=   1.0816E+00 dtmpmx=   4.7254E-02

== TH FLOW =====================================================================
 Step    105 Time=  4.65000E+00 Dt=  5.00000E-02 [y] snes_conv_reason:    3
  newton =   1 [     114] linear =   127 [     14600] cuts =  0 [   0]
  --> max chng: dpmx=   1.0252E+00 dtmpmx=   4.6756E-02

== TH FLOW =====================================================================
 Step    106 Time=  4.70000E+00 Dt=  5.00000E-02 [y] snes_conv_reason:   11
  newton =   1 [     115] linear =   122 [     14722] cuts =  0 [   0]
  --> max chng: dpmx=   9.6613E-01 dtmpmx=   4.6258E-02

== TH FLOW =====================================================================
 Step    107 Time=  4.75000E+00 Dt=  5.00000E-02 [y] snes_conv_reason:   11
  newton =   1 [     116] linear =   129 [     14851] cuts =  0 [   0]
  --> max chng: dpmx=   9.0550E-01 dtmpmx=   4.5778E-02

== TH FLOW =====================================================================
 Step    108 Time=  4.80000E+00 Dt=  5.00000E-02 [y] snes_conv_reason:   11
  newton =   1 [     117] linear =   120 [     14971] cuts =  0 [   0]
  --> max chng: dpmx=   8.4359E-01 dtmpmx=   4.5301E-02

== TH FLOW =====================================================================
 Step    109 Time=  4.85000E+00 Dt=  5.00000E-02 [y] snes_conv_reason:   11
  newton =   1 [     118] linear =   129 [     15100] cuts =  0 [   0]
  --> max chng: dpmx=   7.8126E-01 dtmpmx=   4.4680E-02

== TH FLOW =====================================================================
 Step    110 Time=  4.90000E+00 Dt=  5.00000E-02 [y] snes_conv_reason:   11
  newton =   1 [     119] linear =   126 [     15226] cuts =  0 [   0]
  --> max chng: dpmx=   7.1920E-01 dtmpmx=   4.3672E-02

== TH FLOW =====================================================================
 Step    111 Time=  4.95000E+00 Dt=  5.00000E-02 [y] snes_conv_reason:   11
  newton =   1 [     120] linear =   130 [     15356] cuts =  0 [   0]
  --> max chng: dpmx=   6.5803E-01 dtmpmx=   4.2325E-02

== TH FLOW =====================================================================
 Step    112 Time=  5.00000E+00 Dt=  5.00000E-02 [y] snes_conv_reason:   11
  newton =   1 [     121] linear =   125 [     15481] cuts =  0 [   0]
  --> max chng: dpmx=   5.9844E-01 dtmpmx=   4.0792E-02

== TH FLOW =====================================================================
 Step    113 Time=  5.05000E+00 Dt=  5.00000E-02 [y] snes_conv_reason:   11
  newton =   1 [     122] linear =   131 [     15612] cuts =  0 [   0]
  --> max chng: dpmx=   5.4085E-01 dtmpmx=   3.8979E-02

== TH FLOW =====================================================================
 Step    114 Time=  5.10000E+00 Dt=  5.00000E-02 [y] snes_conv_reason:   11
  newton =   1 [     123] linear =   132 [     15744] cuts =  0 [   0]
  --> max chng: dpmx=   4.8563E-01 dtmpmx=   3.6934E-02

== TH FLOW =====================================================================
 Step    115 Time=  5.15000E+00 Dt=  5.00000E-02 [y] snes_conv_reason:   11
  newton =   1 [     124] linear =   132 [     15876] cuts =  0 [   0]
  --> max chng: dpmx=   4.3359E-01 dtmpmx=   3.4707E-02

== TH FLOW =====================================================================
 Step    116 Time=  5.20000E+00 Dt=  5.00000E-02 [y] snes_conv_reason:   11
  newton =   1 [     125] linear =   131 [     16007] cuts =  0 [   0]
  --> max chng: dpmx=   3.8463E-01 dtmpmx=   3.2351E-02

== TH FLOW =====================================================================
 Step    117 Time=  5.25000E+00 Dt=  5.00000E-02 [y] snes_conv_reason:   11
  newton =   1 [     126] linear =   133 [     16140] cuts =  0 [   0]
  --> max chng: dpmx=   3.3915E-01 dtmpmx=   2.9917E-02

== TH FLOW =====================================================================
 Step    118 Time=  5.30000E+00 Dt=  5.00000E-02 [y] snes_conv_reason:   11
  newton =   1 [     127] linear =   133 [     16273] cuts =  0 [   0]
  --> max chng: dpmx=   2.9713E-01 dtmpmx=   2.7451E-02

== TH FLOW =====================================================================
 Step    119 Time=  5.35000E+00 Dt=  5.00000E-02 [y] snes_conv_reason:   11
  newton =   1 [     128] linear =   135 [     16408] cuts =  0 [   0]
  --> max chng: dpmx=   2.5877E-01 dtmpmx=   2.4997E-02

== TH FLOW =====================================================================
 Step    120 Time=  5.40000E+00 Dt=  5.00000E-02 [y] snes_conv_reason:   11
  newton =   1 [     129] linear =   135 [     16543] cuts =  0 [   0]
  --> max chng: dpmx=   2.2402E-01 dtmpmx=   2.2594E-02

== TH FLOW =====================================================================
 Step    121 Time=  5.45000E+00 Dt=  5.00000E-02 [y] snes_conv_reason:   11
  newton =   1 [     130] linear =   132 [     16675] cuts =  0 [   0]
  --> max chng: dpmx=   1.9270E-01 dtmpmx=   2.0272E-02

== TH FLOW =====================================================================
 Step    122 Time=  5.50000E+00 Dt=  5.00000E-02 [y] snes_conv_reason:   11
  newton =   1 [     131] linear =   132 [     16807] cuts =  0 [   0]
  --> max chng: dpmx=   1.6481E-01 dtmpmx=   1.8059E-02

== TH FLOW =====================================================================
 Step    123 Time=  5.55000E+00 Dt=  5.00000E-02 [y] snes_conv_reason:   11
  newton =   1 [     132] linear =   136 [     16943] cuts =  0 [   0]
  --> max chng: dpmx=   1.4009E-01 dtmpmx=   1.5974E-02

== TH FLOW =====================================================================
 Step    124 Time=  5.60000E+00 Dt=  5.00000E-02 [y] snes_conv_reason:   11
  newton =   1 [     133] linear =   135 [     17078] cuts =  0 [   0]
  --> max chng: dpmx=   1.1836E-01 dtmpmx=   1.4033E-02

== TH FLOW =====================================================================
 Step    125 Time=  5.65000E+00 Dt=  5.00000E-02 [y] snes_conv_reason:   11
  newton =   1 [     134] linear =   135 [     17213] cuts =  0 [   0]
  --> max chng: dpmx=   9.9387E-02 dtmpmx=   1.2244E-02

== TH FLOW =====================================================================
 Step    126 Time=  5.70000E+00 Dt=  5.00000E-02 [y] snes_conv_reason:   11
  newton =   1 [     135] linear =   135 [     17348] cuts =  0 [   0]
  --> max chng: dpmx=   8.2985E-02 dtmpmx=   1.0611E-02

== TH FLOW =====================================================================
 Step    127 Time=  5.75000E+00 Dt=  5.00000E-02 [y] snes_conv_reason:   11
  newton =   1 [     136] linear =   135 [     17483] cuts =  0 [   0]
  --> max chng: dpmx=   6.8860E-02 dtmpmx=   9.1363E-03

== TH FLOW =====================================================================
 Step    128 Time=  5.80000E+00 Dt=  5.00000E-02 [y] snes_conv_reason:   11
  newton =   1 [     137] linear =   136 [     17619] cuts =  0 [   0]
  --> max chng: dpmx=   5.6801E-02 dtmpmx=   7.8151E-03

== TH FLOW =====================================================================
 Step    129 Time=  5.85000E+00 Dt=  5.00000E-02 [y] snes_conv_reason:   11
  newton =   1 [     138] linear =   138 [     17757] cuts =  0 [   0]
  --> max chng: dpmx=   4.6565E-02 dtmpmx=   6.6421E-03

== TH FLOW =====================================================================
 Step    130 Time=  5.90000E+00 Dt=  5.00000E-02 [y] snes_conv_reason:   11
  newton =   1 [     139] linear =   137 [     17894] cuts =  0 [   0]
  --> max chng: dpmx=   3.7930E-02 dtmpmx=   5.6091E-03

== TH FLOW =====================================================================
 Step    131 Time=  5.95000E+00 Dt=  5.00000E-02 [y] snes_conv_reason:   11
  newton =   1 [     140] linear =   139 [     18033] cuts =  0 [   0]
  --> max chng: dpmx=   3.0718E-02 dtmpmx=   4.7068E-03

== TH FLOW =====================================================================
 Step    132 Time=  6.00000E+00 Dt=  5.00000E-02 [y] snes_conv_reason:   11
  newton =   1 [     141] linear =   149 [     18182] cuts =  0 [   0]
  --> max chng: dpmx=   2.4715E-02 dtmpmx=   3.9246E-03

== TH FLOW =====================================================================
 Step    133 Time=  6.05000E+00 Dt=  5.00000E-02 [y] snes_conv_reason:   11
  newton =   1 [     142] linear =   135 [     18317] cuts =  0 [   0]
  --> max chng: dpmx=   1.9744E-02 dtmpmx=   3.2517E-03

== TH FLOW =====================================================================
 Step    134 Time=  6.10000E+00 Dt=  5.00000E-02 [y] snes_conv_reason:   11
  newton =   1 [     143] linear =   136 [     18453] cuts =  0 [   0]
  --> max chng: dpmx=   1.5672E-02 dtmpmx=   2.6769E-03

== TH FLOW =====================================================================
 Step    135 Time=  6.15000E+00 Dt=  5.00000E-02 [y] snes_conv_reason:   11
  newton =   1 [     144] linear =   137 [     18590] cuts =  0 [   0]
  --> max chng: dpmx=   1.2346E-02 dtmpmx=   2.1894E-03

== TH FLOW =====================================================================
 Step    136 Time=  6.20000E+00 Dt=  5.00000E-02 [y] snes_conv_reason:   11
  newton =   1 [     145] linear =   138 [     18728] cuts =  0 [   0]
  --> max chng: dpmx=   9.6522E-03 dtmpmx=   1.7788E-03

== TH FLOW =====================================================================
 Step    137 Time=  6.25000E+00 Dt=  5.00000E-02 [y] snes_conv_reason:   11
  newton =   1 [     146] linear =   140 [     18868] cuts =  0 [   0]
  --> max chng: dpmx=   7.4817E-03 dtmpmx=   1.4352E-03

== TH FLOW =====================================================================
 Step    138 Time=  6.30000E+00 Dt=  5.00000E-02 [y] snes_conv_reason:   11
  newton =   1 [     147] linear =   140 [     19008] cuts =  0 [   0]
  --> max chng: dpmx=   5.7471E-03 dtmpmx=   1.1496E-03

== TH FLOW =====================================================================
 Step    139 Time=  6.35000E+00 Dt=  5.00000E-02 [y] snes_conv_reason:   11
  newton =   1 [     148] linear =   138 [     19146] cuts =  0 [   0]
  --> max chng: dpmx=   4.3719E-03 dtmpmx=   9.1376E-04

== TH FLOW =====================================================================
 Step    140 Time=  6.40000E+00 Dt=  5.00000E-02 [y] snes_conv_reason:   11
  newton =   1 [     149] linear =   136 [     19282] cuts =  0 [   0]
  --> max chng: dpmx=   3.2869E-03 dtmpmx=   7.2017E-04

== TH FLOW =====================================================================
 Step    141 Time=  6.45000E+00 Dt=  5.00000E-02 [y] snes_conv_reason:   11
  newton =   1 [     150] linear =   134 [     19416] cuts =  0 [   0]
  --> max chng: dpmx=   2.4396E-03 dtmpmx=   5.6224E-04

== TH FLOW =====================================================================
 Step    142 Time=  6.50000E+00 Dt=  5.00000E-02 [y] snes_conv_reason:   11
  newton =   1 [     151] linear =   135 [     19551] cuts =  0 [   0]
  --> max chng: dpmx=   1.9161E-03 dtmpmx=   4.3418E-04

== TH FLOW =====================================================================
 Step    143 Time=  6.55000E+00 Dt=  5.00000E-02 [y] snes_conv_reason:   11
  newton =   1 [     152] linear =   134 [     19685] cuts =  0 [   0]
  --> max chng: dpmx=   2.1590E-03 dtmpmx=   3.3093E-04

== TH FLOW =====================================================================
 Step    144 Time=  6.60000E+00 Dt=  5.00000E-02 [y] snes_conv_reason:   11
  newton =   1 [     153] linear =   134 [     19819] cuts =  0 [   0]
  --> max chng: dpmx=   2.3541E-03 dtmpmx=   2.4817E-04

== TH FLOW =====================================================================
 Step    145 Time=  6.65000E+00 Dt=  5.00000E-02 [y] snes_conv_reason:   11
  newton =   1 [     154] linear =   137 [     19956] cuts =  0 [   0]
  --> max chng: dpmx=   2.5076E-03 dtmpmx=   1.8220E-04

== TH FLOW =====================================================================
 Step    146 Time=  6.70000E+00 Dt=  5.00000E-02 [y] snes_conv_reason:   11
  newton =   1 [     155] linear =   129 [     20085] cuts =  0 [   0]
  --> max chng: dpmx=   2.6261E-03 dtmpmx=   1.2989E-04

== TH FLOW =====================================================================
 Step    147 Time=  6.75000E+00 Dt=  5.00000E-02 [y] snes_conv_reason:   11
  newton =   1 [     156] linear =   126 [     20211] cuts =  0 [   0]
  --> max chng: dpmx=   2.7164E-03 dtmpmx=   8.8627E-05

== TH FLOW =====================================================================
 Step    148 Time=  6.80000E+00 Dt=  5.00000E-02 [y] snes_conv_reason:   11
  newton =   1 [     157] linear =   123 [     20334] cuts =  0 [   0]
  --> max chng: dpmx=   2.7830E-03 dtmpmx=   5.7696E-05

== TH FLOW =====================================================================
 Step    149 Time=  6.85000E+00 Dt=  5.00000E-02 [y] snes_conv_reason:   11
  newton =   1 [     158] linear =   124 [     20458] cuts =  0 [   0]
  --> max chng: dpmx=   2.8299E-03 dtmpmx=   5.7600E-05

== TH FLOW =====================================================================
 Step    150 Time=  6.90000E+00 Dt=  5.00000E-02 [y] snes_conv_reason:   11
  newton =   1 [     159] linear =   127 [     20585] cuts =  0 [   0]
  --> max chng: dpmx=   2.8616E-03 dtmpmx=   5.7502E-05

== TH FLOW =====================================================================
 Step    151 Time=  6.95000E+00 Dt=  5.00000E-02 [y] snes_conv_reason:   11
  newton =   1 [     160] linear =   123 [     20708] cuts =  0 [   0]
  --> max chng: dpmx=   2.8803E-03 dtmpmx=   5.7402E-05

== TH FLOW =====================================================================
 Step    152 Time=  7.00000E+00 Dt=  5.00000E-02 [y] snes_conv_reason:   11
  newton =   1 [     161] linear =   117 [     20825] cuts =  0 [   0]
  --> max chng: dpmx=   2.8887E-03 dtmpmx=   5.7301E-05

== TH FLOW =====================================================================
 Step    153 Time=  7.05000E+00 Dt=  5.00000E-02 [y] snes_conv_reason:   11
  newton =   1 [     162] linear =   108 [     20933] cuts =  0 [   0]
  --> max chng: dpmx=   2.8887E-03 dtmpmx=   5.7198E-05

== TH FLOW =====================================================================
 Step    154 Time=  7.10000E+00 Dt=  5.00000E-02 [y] snes_conv_reason:   11
  newton =   1 [     163] linear =   128 [     21061] cuts =  0 [   0]
  --> max chng: dpmx=   2.8815E-03 dtmpmx=   5.7093E-05

== TH FLOW =====================================================================
 Step    155 Time=  7.15000E+00 Dt=  5.00000E-02 [y] snes_conv_reason:   11
  newton =   1 [     164] linear =   120 [     21181] cuts =  0 [   0]
  --> max chng: dpmx=   2.8689E-03 dtmpmx=   5.6987E-05

== TH FLOW =====================================================================
 Step    156 Time=  7.20000E+00 Dt=  5.00000E-02 [y] snes_conv_reason:   11
  newton =   1 [     165] linear =   111 [     21292] cuts =  0 [   0]
  --> max chng: dpmx=   2.8506E-03 dtmpmx=   5.6879E-05

== TH FLOW =====================================================================
 Step    157 Time=  7.25000E+00 Dt=  5.00000E-02 [y] snes_conv_reason:   11
  newton =   1 [     166] linear =   118 [     21410] cuts =  0 [   0]
  --> max chng: dpmx=   2.8281E-03 dtmpmx=   5.6770E-05

== TH FLOW =====================================================================
 Step    158 Time=  7.30000E+00 Dt=  5.00000E-02 [y] snes_conv_reason:   11
  newton =   1 [     167] linear =   122 [     21532] cuts =  0 [   0]
  --> max chng: dpmx=   2.8021E-03 dtmpmx=   5.6661E-05

== TH FLOW =====================================================================
 Step    159 Time=  7.35000E+00 Dt=  5.00000E-02 [y] snes_conv_reason:   11
  newton =   1 [     168] linear =   118 [     21650] cuts =  0 [   0]
  --> max chng: dpmx=   2.7727E-03 dtmpmx=   5.6550E-05

== TH FLOW =====================================================================
 Step    160 Time=  7.40000E+00 Dt=  5.00000E-02 [y] snes_conv_reason:   11
  newton =   1 [     169] linear =   117 [     21767] cuts =  0 [   0]
  --> max chng: dpmx=   2.7397E-03 dtmpmx=   5.6438E-05

== TH FLOW =====================================================================
 Step    161 Time=  7.45000E+00 Dt=  5.00000E-02 [y] snes_conv_reason:   11
  newton =   1 [     170] linear =   115 [     21882] cuts =  0 [   0]
  --> max chng: dpmx=   2.7042E-03 dtmpmx=   5.6325E-05

== TH FLOW =====================================================================
 Step    162 Time=  7.50000E+00 Dt=  5.00000E-02 [y] snes_conv_reason:   11
  newton =   1 [     171] linear =   108 [     21990] cuts =  0 [   0]
  --> max chng: dpmx=   2.6662E-03 dtmpmx=   5.6211E-05

== TH FLOW =====================================================================
 Step    163 Time=  7.55000E+00 Dt=  5.00000E-02 [y] snes_conv_reason:   11
  newton =   1 [     172] linear =   124 [     22114] cuts =  0 [   0]
  --> max chng: dpmx=   2.6249E-03 dtmpmx=   5.6096E-05

== TH FLOW =====================================================================
 Step    164 Time=  7.60000E+00 Dt=  5.00000E-02 [y] snes_conv_reason:   11
  newton =   1 [     173] linear =   122 [     22236] cuts =  0 [   0]
  --> max chng: dpmx=   2.5824E-03 dtmpmx=   5.5980E-05

== TH FLOW =====================================================================
 Step    165 Time=  7.65000E+00 Dt=  5.00000E-02 [y] snes_conv_reason:   11
  newton =   1 [     174] linear =   104 [     22340] cuts =  0 [   0]
  --> max chng: dpmx=   2.5365E-03 dtmpmx=   5.5863E-05

== TH FLOW =====================================================================
 Step    166 Time=  7.70000E+00 Dt=  5.00000E-02 [y] snes_conv_reason:   11
  newton =   1 [     175] linear =   117 [     22457] cuts =  0 [   0]
  --> max chng: dpmx=   2.4890E-03 dtmpmx=   5.5745E-05

== TH FLOW =====================================================================
 Step    167 Time=  7.75000E+00 Dt=  5.00000E-02 [y] snes_conv_reason:   11
  newton =   1 [     176] linear =   101 [     22558] cuts =  0 [   0]
  --> max chng: dpmx=   2.4389E-03 dtmpmx=   5.5627E-05

== TH FLOW =====================================================================
 Step    168 Time=  7.80000E+00 Dt=  5.00000E-02 [y] snes_conv_reason:   11
  newton =   1 [     177] linear =   109 [     22667] cuts =  0 [   0]
  --> max chng: dpmx=   2.3874E-03 dtmpmx=   5.5508E-05

== TH FLOW =====================================================================
 Step    169 Time=  7.85000E+00 Dt=  5.00000E-02 [y] snes_conv_reason:   11
  newton =   1 [     178] linear =   119 [     22786] cuts =  0 [   0]
  --> max chng: dpmx=   2.3338E-03 dtmpmx=   5.5388E-05

== TH FLOW =====================================================================
 Step    170 Time=  7.90000E+00 Dt=  5.00000E-02 [y] snes_conv_reason:   11
  newton =   1 [     179] linear =   121 [     22907] cuts =  0 [   0]
  --> max chng: dpmx=   2.2779E-03 dtmpmx=   5.5266E-05

== TH FLOW =====================================================================
 Step    171 Time=  7.95000E+00 Dt=  5.00000E-02 [y] snes_conv_reason:   11
  newton =   1 [     180] linear =   116 [     23023] cuts =  0 [   0]
  --> max chng: dpmx=   2.2208E-03 dtmpmx=   5.5144E-05

== TH FLOW =====================================================================
 Step    172 Time=  8.00000E+00 Dt=  5.00000E-02 [y] snes_conv_reason:   11
  newton =   1 [     181] linear =   120 [     23143] cuts =  0 [   0]
  --> max chng: dpmx=   2.1619E-03 dtmpmx=   5.5021E-05

== TH FLOW =====================================================================
 Step    173 Time=  8.05000E+00 Dt=  5.00000E-02 [y] snes_conv_reason:   11
  newton =   1 [     182] linear =   107 [     23250] cuts =  0 [   0]
  --> max chng: dpmx=   2.1017E-03 dtmpmx=   5.4878E-05

== TH FLOW =====================================================================
 Step    174 Time=  8.10000E+00 Dt=  5.00000E-02 [y] snes_conv_reason:   11
  newton =   1 [     183] linear =   107 [     23357] cuts =  0 [   0]
  --> max chng: dpmx=   2.0405E-03 dtmpmx=   5.4673E-05

== TH FLOW =====================================================================
 Step    175 Time=  8.15000E+00 Dt=  5.00000E-02 [y] snes_conv_reason:   11
  newton =   1 [     184] linear =   119 [     23476] cuts =  0 [   0]
  --> max chng: dpmx=   1.9771E-03 dtmpmx=   5.4401E-05

== TH FLOW =====================================================================
 Step    176 Time=  8.20000E+00 Dt=  5.00000E-02 [y] snes_conv_reason:   11
  newton =   1 [     185] linear =   109 [     23585] cuts =  0 [   0]
  --> max chng: dpmx=   1.9132E-03 dtmpmx=   5.4058E-05

== TH FLOW =====================================================================
 Step    177 Time=  8.25000E+00 Dt=  5.00000E-02 [y] snes_conv_reason:   11
  newton =   1 [     186] linear =   119 [     23704] cuts =  0 [   0]
  --> max chng: dpmx=   1.8485E-03 dtmpmx=   5.3643E-05

== TH FLOW =====================================================================
 Step    178 Time=  8.30000E+00 Dt=  5.00000E-02 [y] snes_conv_reason:   11
  newton =   1 [     187] linear =   122 [     23826] cuts =  0 [   0]
  --> max chng: dpmx=   1.7829E-03 dtmpmx=   5.3152E-05

== TH FLOW =====================================================================
 Step    179 Time=  8.35000E+00 Dt=  5.00000E-02 [y] snes_conv_reason:   11
  newton =   1 [     188] linear =   122 [     23948] cuts =  0 [   0]
  --> max chng: dpmx=   1.7165E-03 dtmpmx=   5.2584E-05

== TH FLOW =====================================================================
 Step    180 Time=  8.40000E+00 Dt=  5.00000E-02 [y] snes_conv_reason:   11
  newton =   1 [     189] linear =   123 [     24071] cuts =  0 [   0]
  --> max chng: dpmx=   1.6498E-03 dtmpmx=   5.1937E-05

== TH FLOW =====================================================================
 Step    181 Time=  8.45000E+00 Dt=  5.00000E-02 [y] snes_conv_reason:   11
  newton =   1 [     190] linear =   124 [     24195] cuts =  0 [   0]
  --> max chng: dpmx=   1.5828E-03 dtmpmx=   5.1210E-05

== TH FLOW =====================================================================
 Step    182 Time=  8.50000E+00 Dt=  5.00000E-02 [y] snes_conv_reason:   11
  newton =   1 [     191] linear =   123 [     24318] cuts =  0 [   0]
  --> max chng: dpmx=   1.5159E-03 dtmpmx=   5.0403E-05

== TH FLOW =====================================================================
 Step    183 Time=  8.55000E+00 Dt=  5.00000E-02 [y] snes_conv_reason:   11
  newton =   1 [     192] linear =   128 [     24446] cuts =  0 [   0]
  --> max chng: dpmx=   1.4490E-03 dtmpmx=   4.9516E-05

== TH FLOW =====================================================================
 Step    184 Time=  8.60000E+00 Dt=  5.00000E-02 [y] snes_conv_reason:   11
  newton =   1 [     193] linear =   121 [     24567] cuts =  0 [   0]
  --> max chng: dpmx=   1.3823E-03 dtmpmx=   4.8550E-05

== TH FLOW =====================================================================
 Step    185 Time=  8.65000E+00 Dt=  5.00000E-02 [y] snes_conv_reason:   11
  newton =   1 [     194] linear =   127 [     24694] cuts =  0 [   0]
  --> max chng: dpmx=   1.3157E-03 dtmpmx=   4.7507E-05

== TH FLOW =====================================================================
 Step    186 Time=  8.70000E+00 Dt=  5.00000E-02 [y] snes_conv_reason:   11
  newton =   1 [     195] linear =   123 [     24817] cuts =  0 [   0]
  --> max chng: dpmx=   1.2504E-03 dtmpmx=   4.6388E-05

== TH FLOW =====================================================================
 Step    187 Time=  8.75000E+00 Dt=  5.00000E-02 [y] snes_conv_reason:   11
  newton =   1 [     196] linear =   129 [     24946] cuts =  0 [   0]
  --> max chng: dpmx=   1.1853E-03 dtmpmx=   4.5198E-05

== TH FLOW =====================================================================
 Step    188 Time=  8.80000E+00 Dt=  5.00000E-02 [y] snes_conv_reason:   11
  newton =   1 [     197] linear =   128 [     25074] cuts =  0 [   0]
  --> max chng: dpmx=   1.1216E-03 dtmpmx=   4.3974E-05

== TH FLOW =====================================================================
 Step    189 Time=  8.85000E+00 Dt=  5.00000E-02 [y] snes_conv_reason:   11
  newton =   1 [     198] linear =   127 [     25201] cuts =  0 [   0]
  --> max chng: dpmx=   1.0588E-03 dtmpmx=   4.2690E-05

== TH FLOW =====================================================================
 Step    190 Time=  8.90000E+00 Dt=  5.00000E-02 [y] snes_conv_reason:   11
  newton =   1 [     199] linear =   131 [     25332] cuts =  0 [   0]
  --> max chng: dpmx=   9.9746E-04 dtmpmx=   4.1347E-05

== TH FLOW =====================================================================
 Step    191 Time=  8.95000E+00 Dt=  5.00000E-02 [y] snes_conv_reason:   11
  newton =   1 [     200] linear =   129 [     25461] cuts =  0 [   0]
  --> max chng: dpmx=   9.3743E-04 dtmpmx=   3.9950E-05

== TH FLOW =====================================================================
 Step    192 Time=  9.00000E+00 Dt=  5.00000E-02 [y] snes_conv_reason:   11
  newton =   1 [     201] linear =   129 [     25590] cuts =  0 [   0]
  --> max chng: dpmx=   8.7898E-04 dtmpmx=   3.8506E-05

== TH FLOW =====================================================================
 Step    193 Time=  9.05000E+00 Dt=  5.00000E-02 [y] snes_conv_reason:   11
  newton =   1 [     202] linear =   128 [     25718] cuts =  0 [   0]
  --> max chng: dpmx=   8.2242E-04 dtmpmx=   3.7021E-05

== TH FLOW =====================================================================
 Step    194 Time=  9.10000E+00 Dt=  5.00000E-02 [y] snes_conv_reason:   11
  newton =   1 [     203] linear =   127 [     25845] cuts =  0 [   0]
  --> max chng: dpmx=   7.6738E-04 dtmpmx=   3.5502E-05

== TH FLOW =====================================================================
 Step    195 Time=  9.15000E+00 Dt=  5.00000E-02 [y] snes_conv_reason:   11
  newton =   1 [     204] linear =   127 [     25972] cuts =  0 [   0]
  --> max chng: dpmx=   7.1459E-04 dtmpmx=   3.3956E-05

== TH FLOW =====================================================================
 Step    196 Time=  9.20000E+00 Dt=  5.00000E-02 [y] snes_conv_reason:   11
  newton =   1 [     205] linear =   127 [     26099] cuts =  0 [   0]
  --> max chng: dpmx=   6.6362E-04 dtmpmx=   3.2391E-05

== TH FLOW =====================================================================
 Step    197 Time=  9.25000E+00 Dt=  5.00000E-02 [y] snes_conv_reason:   11
  newton =   1 [     206] linear =   131 [     26230] cuts =  0 [   0]
  --> max chng: dpmx=   6.1491E-04 dtmpmx=   3.0815E-05

== TH FLOW =====================================================================
 Step    198 Time=  9.30000E+00 Dt=  5.00000E-02 [y] snes_conv_reason:   11
  newton =   1 [     207] linear =   131 [     26361] cuts =  0 [   0]
  --> max chng: dpmx=   5.6818E-04 dtmpmx=   2.9234E-05

== TH FLOW =====================================================================
 Step    199 Time=  9.35000E+00 Dt=  5.00000E-02 [y] snes_conv_reason:   11
  newton =   1 [     208] linear =   131 [     26492] cuts =  0 [   0]
  --> max chng: dpmx=   5.2367E-04 dtmpmx=   2.7658E-05

== TH FLOW =====================================================================
 Step    200 Time=  9.40000E+00 Dt=  5.00000E-02 [y] snes_conv_reason:   11
  newton =   1 [     209] linear =   131 [     26623] cuts =  0 [   0]
  --> max chng: dpmx=   4.8146E-04 dtmpmx=   2.6092E-05

== TH FLOW =====================================================================
 Step    201 Time=  9.45000E+00 Dt=  5.00000E-02 [y] snes_conv_reason:   11
  newton =   1 [     210] linear =   131 [     26754] cuts =  0 [   0]
  --> max chng: dpmx=   4.4142E-04 dtmpmx=   2.4545E-05

== TH FLOW =====================================================================
 Step    202 Time=  9.50000E+00 Dt=  5.00000E-02 [y] snes_conv_reason:   11
  newton =   1 [     211] linear =   129 [     26883] cuts =  0 [   0]
  --> max chng: dpmx=   4.0366E-04 dtmpmx=   2.3022E-05

== TH FLOW =====================================================================
 Step    203 Time=  9.55000E+00 Dt=  5.00000E-02 [y] snes_conv_reason:   11
  newton =   1 [     212] linear =   131 [     27014] cuts =  0 [   0]
  --> max chng: dpmx=   3.6811E-04 dtmpmx=   2.1531E-05

== TH FLOW =====================================================================
 Step    204 Time=  9.60000E+00 Dt=  5.00000E-02 [y] snes_conv_reason:   11
  newton =   1 [     213] linear =   129 [     27143] cuts =  0 [   0]
  --> max chng: dpmx=   3.3482E-04 dtmpmx=   2.0076E-05

== TH FLOW =====================================================================
 Step    205 Time=  9.65000E+00 Dt=  5.00000E-02 [y] snes_conv_reason:   11
  newton =   1 [     214] linear =   133 [     27276] cuts =  0 [   0]
  --> max chng: dpmx=   3.0358E-04 dtmpmx=   1.8664E-05

== TH FLOW =====================================================================
 Step    206 Time=  9.70000E+00 Dt=  5.00000E-02 [y] snes_conv_reason:   11
  newton =   1 [     215] linear =   133 [     27409] cuts =  0 [   0]
  --> max chng: dpmx=   2.7454E-04 dtmpmx=   1.7298E-05

== TH FLOW =====================================================================
 Step    207 Time=  9.75000E+00 Dt=  5.00000E-02 [y] snes_conv_reason:   11
  newton =   1 [     216] linear =   133 [     27542] cuts =  0 [   0]
  --> max chng: dpmx=   2.4754E-04 dtmpmx=   1.5983E-05

== TH FLOW =====================================================================
 Step    208 Time=  9.80000E+00 Dt=  5.00000E-02 [y] snes_conv_reason:   11
  newton =   1 [     217] linear =   133 [     27675] cuts =  0 [   0]
  --> max chng: dpmx=   2.2255E-04 dtmpmx=   1.4723E-05

== TH FLOW =====================================================================
 Step    209 Time=  9.85000E+00 Dt=  5.00000E-02 [y] snes_conv_reason:   11
  newton =   1 [     218] linear =   132 [     27807] cuts =  0 [   0]
  --> max chng: dpmx=   1.9949E-04 dtmpmx=   1.3520E-05

== TH FLOW =====================================================================
 Step    210 Time=  9.90000E+00 Dt=  5.00000E-02 [y] snes_conv_reason:   11
  newton =   1 [     219] linear =   132 [     27939] cuts =  0 [   0]
  --> max chng: dpmx=   1.7831E-04 dtmpmx=   1.2376E-05

== TH FLOW =====================================================================
 Step    211 Time=  9.95000E+00 Dt=  5.00000E-02 [y] snes_conv_reason:   11
  newton =   1 [     220] linear =   133 [     28072] cuts =  0 [   0]
  --> max chng: dpmx=   1.5877E-04 dtmpmx=   1.1292E-05

== TH FLOW =====================================================================
 Step    212 Time=  1.00000E+01 Dt=  5.00000E-02 [y] snes_conv_reason:   11
  newton =   1 [     221] linear =   132 [     28204] cuts =  0 [   0]
  --> max chng: dpmx=   1.4103E-04 dtmpmx=   1.0271E-05

== TH FLOW =====================================================================
 Step    213 Time=  1.00500E+01 Dt=  5.00000E-02 [y] snes_conv_reason:   11
  newton =   1 [     222] linear =   135 [     28339] cuts =  0 [   0]
  --> max chng: dpmx=   1.2483E-04 dtmpmx=   9.3112E-06

== TH FLOW =====================================================================
 Step    214 Time=  1.01000E+01 Dt=  5.00000E-02 [y] snes_conv_reason:   11
  newton =   1 [     223] linear =   135 [     28474] cuts =  0 [   0]
  --> max chng: dpmx=   1.1011E-04 dtmpmx=   8.4134E-06

== TH FLOW =====================================================================
 Step    215 Time=  1.01500E+01 Dt=  5.00000E-02 [y] snes_conv_reason:   11
  newton =   1 [     224] linear =   129 [     28603] cuts =  0 [   0]
  --> max chng: dpmx=   9.6816E-05 dtmpmx=   7.5769E-06

== TH FLOW =====================================================================
 Step    216 Time=  1.02000E+01 Dt=  5.00000E-02 [y] snes_conv_reason:   11
  newton =   1 [     225] linear =   135 [     28738] cuts =  0 [   0]
  --> max chng: dpmx=   8.4797E-05 dtmpmx=   6.8003E-06

== TH FLOW =====================================================================
 Step    217 Time=  1.02500E+01 Dt=  5.00000E-02 [y] snes_conv_reason:   11
  newton =   1 [     226] linear =   135 [     28873] cuts =  0 [   0]
  --> max chng: dpmx=   7.4005E-05 dtmpmx=   6.0822E-06

== TH FLOW =====================================================================
 Step    218 Time=  1.03000E+01 Dt=  5.00000E-02 [y] snes_conv_reason:   11
  newton =   1 [     227] linear =   135 [     29008] cuts =  0 [   0]
  --> max chng: dpmx=   6.4348E-05 dtmpmx=   5.4209E-06

== TH FLOW =====================================================================
 Step    219 Time=  1.03500E+01 Dt=  5.00000E-02 [y] snes_conv_reason:   11
  newton =   1 [     228] linear =   136 [     29144] cuts =  0 [   0]
  --> max chng: dpmx=   5.5723E-05 dtmpmx=   4.8139E-06

== TH FLOW =====================================================================
 Step    220 Time=  1.04000E+01 Dt=  5.00000E-02 [y] snes_conv_reason:   11
  newton =   1 [     229] linear =   138 [     29282] cuts =  0 [   0]
  --> max chng: dpmx=   4.8051E-05 dtmpmx=   4.2591E-06

== TH FLOW =====================================================================
 Step    221 Time=  1.04500E+01 Dt=  5.00000E-02 [y] snes_conv_reason:   11
  newton =   1 [     230] linear =   137 [     29419] cuts =  0 [   0]
  --> max chng: dpmx=   4.1245E-05 dtmpmx=   3.7540E-06

== TH FLOW =====================================================================
 Step    222 Time=  1.05000E+01 Dt=  5.00000E-02 [y] snes_conv_reason:   11
  newton =   1 [     231] linear =   141 [     29560] cuts =  0 [   0]
  --> max chng: dpmx=   3.5241E-05 dtmpmx=   3.2957E-06

== TH FLOW =====================================================================
 Step    223 Time=  1.05500E+01 Dt=  5.00000E-02 [y] snes_conv_reason:   11
  newton =   1 [     232] linear =   142 [     29702] cuts =  0 [   0]
  --> max chng: dpmx=   2.9958E-05 dtmpmx=   2.8814E-06

== TH FLOW =====================================================================
 Step    224 Time=  1.06000E+01 Dt=  5.00000E-02 [y] snes_conv_reason:   11
  newton =   1 [     233] linear =   138 [     29840] cuts =  0 [   0]
  --> max chng: dpmx=   2.5328E-05 dtmpmx=   2.5083E-06

== TH FLOW =====================================================================
 Step    225 Time=  1.06500E+01 Dt=  5.00000E-02 [y] snes_conv_reason:   11
  newton =   1 [     234] linear =   142 [     29982] cuts =  0 [   0]
  --> max chng: dpmx=   2.1281E-05 dtmpmx=   2.1736E-06

== TH FLOW =====================================================================
 Step    226 Time=  1.07000E+01 Dt=  5.00000E-02 [y] snes_conv_reason:   11
  newton =   1 [     235] linear =   139 [     30121] cuts =  0 [   0]
  --> max chng: dpmx=   1.7771E-05 dtmpmx=   1.8745E-06

== TH FLOW =====================================================================
 Step    227 Time=  1.07500E+01 Dt=  5.00000E-02 [y] snes_conv_reason:   11
  newton =   1 [     236] linear =   135 [     30256] cuts =  0 [   0]
  --> max chng: dpmx=   1.4733E-05 dtmpmx=   1.6081E-06

== TH FLOW =====================================================================
 Step    228 Time=  1.08000E+01 Dt=  5.00000E-02 [y] snes_conv_reason:   11
  newton =   1 [     237] linear =   139 [     30395] cuts =  0 [   0]
  --> max chng: dpmx=   1.2119E-05 dtmpmx=   1.3718E-06

== TH FLOW =====================================================================
 Step    229 Time=  1.08500E+01 Dt=  5.00000E-02 [y] snes_conv_reason:   11
  newton =   1 [     238] linear =   137 [     30532] cuts =  0 [   0]
  --> max chng: dpmx=   9.8782E-06 dtmpmx=   1.1629E-06

== TH FLOW =====================================================================
 Step    230 Time=  1.09000E+01 Dt=  5.00000E-02 [y] snes_conv_reason:   11
  newton =   1 [     239] linear =   137 [     30669] cuts =  0 [   0]
  --> max chng: dpmx=   7.9744E-06 dtmpmx=   9.7890E-07

== TH FLOW =====================================================================
 Step    231 Time=  1.09500E+01 Dt=  5.00000E-02 [y] snes_conv_reason:   11
  newton =   1 [     240] linear =   135 [     30804] cuts =  0 [   0]
  --> max chng: dpmx=   6.3640E-06 dtmpmx=   8.1753E-07

== TH FLOW =====================================================================
 Step    232 Time=  1.10000E+01 Dt=  5.00000E-02 [y] snes_conv_reason:   11
  newton =   1 [     241] linear =   134 [     30938] cuts =  0 [   0]
  --> max chng: dpmx=   5.0121E-06 dtmpmx=   6.7649E-07

== TH FLOW =====================================================================
 Step    233 Time=  1.10500E+01 Dt=  5.00000E-02 [y] snes_conv_reason:   11
  newton =   1 [     242] linear =   133 [     31071] cuts =  0 [   0]
  --> max chng: dpmx=   3.8878E-06 dtmpmx=   5.5373E-07

== TH FLOW =====================================================================
 Step    234 Time=  1.11000E+01 Dt=  5.00000E-02 [y] snes_conv_reason:   11
  newton =   1 [     243] linear =   135 [     31206] cuts =  0 [   0]
  --> max chng: dpmx=   2.9629E-06 dtmpmx=   4.4729E-07

== TH FLOW =====================================================================
 Step    235 Time=  1.11500E+01 Dt=  5.00000E-02 [y] snes_conv_reason:   11
  newton =   1 [     244] linear =   136 [     31342] cuts =  0 [   0]
  --> max chng: dpmx=   3.3537E-06 dtmpmx=   3.5534E-07

== TH FLOW =====================================================================
 Step    236 Time=  1.12000E+01 Dt=  5.00000E-02 [y] snes_conv_reason:   11
  newton =   1 [     245] linear =   135 [     31477] cuts =  0 [   0]
  --> max chng: dpmx=   3.6994E-06 dtmpmx=   2.7628E-07

== TH FLOW =====================================================================
 Step    237 Time=  1.12500E+01 Dt=  5.00000E-02 [y] snes_conv_reason:   11
  newton =   1 [     246] linear =   134 [     31611] cuts =  0 [   0]
  --> max chng: dpmx=   3.9793E-06 dtmpmx=   2.0859E-07

== TH FLOW =====================================================================
 Step    238 Time=  1.13000E+01 Dt=  5.00000E-02 [y] snes_conv_reason:   11
  newton =   1 [     247] linear =   127 [     31738] cuts =  0 [   0]
  --> max chng: dpmx=   4.1962E-06 dtmpmx=   1.5098E-07

== TH FLOW =====================================================================
 Step    239 Time=  1.13500E+01 Dt=  5.00000E-02 [y] snes_conv_reason:   11
  newton =   1 [     248] linear =   127 [     31865] cuts =  0 [   0]
  --> max chng: dpmx=   4.3617E-06 dtmpmx=   1.1972E-07

== TH FLOW =====================================================================
 Step    240 Time=  1.14000E+01 Dt=  5.00000E-02 [y] snes_conv_reason:   11
  newton =   1 [     249] linear =   126 [     31991] cuts =  0 [   0]
  --> max chng: dpmx=   4.4764E-06 dtmpmx=   1.1906E-07

== TH FLOW =====================================================================
 Step    241 Time=  1.14500E+01 Dt=  5.00000E-02 [y] snes_conv_reason:   11
  newton =   1 [     250] linear =   127 [     32118] cuts =  0 [   0]
  --> max chng: dpmx=   4.5493E-06 dtmpmx=   1.1841E-07

== TH FLOW =====================================================================
 Step    242 Time=  1.15000E+01 Dt=  5.00000E-02 [y] snes_conv_reason:   11
  newton =   1 [     251] linear =   119 [     32237] cuts =  0 [   0]
  --> max chng: dpmx=   4.5856E-06 dtmpmx=   1.1774E-07

== TH FLOW =====================================================================
 Step    243 Time=  1.15500E+01 Dt=  5.00000E-02 [y] snes_conv_reason:   11
  newton =   1 [     252] linear =   121 [     32358] cuts =  0 [   0]
  --> max chng: dpmx=   4.5896E-06 dtmpmx=   1.1711E-07

== TH FLOW =====================================================================
 Step    244 Time=  1.16000E+01 Dt=  5.00000E-02 [y] snes_conv_reason:   11
  newton =   1 [     253] linear =   124 [     32482] cuts =  0 [   0]
  --> max chng: dpmx=   4.5686E-06 dtmpmx=   1.1642E-07

== TH FLOW =====================================================================
 Step    245 Time=  1.16500E+01 Dt=  5.00000E-02 [y] snes_conv_reason:   11
  newton =   1 [     254] linear =   122 [     32604] cuts =  0 [   0]
  --> max chng: dpmx=   4.5232E-06 dtmpmx=   1.1579E-07

== TH FLOW =====================================================================
 Step    246 Time=  1.17000E+01 Dt=  5.00000E-02 [y] snes_conv_reason:   11
  newton =   1 [     255] linear =   126 [     32730] cuts =  0 [   0]
  --> max chng: dpmx=   4.4593E-06 dtmpmx=   1.1509E-07

== TH FLOW =====================================================================
 Step    247 Time=  1.17500E+01 Dt=  5.00000E-02 [y] snes_conv_reason:   11
  newton =   1 [     256] linear =   116 [     32846] cuts =  0 [   0]
  --> max chng: dpmx=   4.3797E-06 dtmpmx=   1.1445E-07

== TH FLOW =====================================================================
 Step    248 Time=  1.18000E+01 Dt=  5.00000E-02 [y] snes_conv_reason:   11
  newton =   1 [     257] linear =   124 [     32970] cuts =  0 [   0]
  --> max chng: dpmx=   4.2887E-06 dtmpmx=   1.1385E-07

== TH FLOW =====================================================================
 Step    249 Time=  1.18500E+01 Dt=  5.00000E-02 [y] snes_conv_reason:   11
  newton =   1 [     258] linear =   124 [     33094] cuts =  0 [   0]
  --> max chng: dpmx=   4.1854E-06 dtmpmx=   1.1318E-07

== TH FLOW =====================================================================
 Step    250 Time=  1.19000E+01 Dt=  5.00000E-02 [y] snes_conv_reason:   11
  newton =   1 [     259] linear =   126 [     33220] cuts =  0 [   0]
  --> max chng: dpmx=   4.0742E-06 dtmpmx=   1.1251E-07

== TH FLOW =====================================================================
 Step    251 Time=  1.19500E+01 Dt=  5.00000E-02 [y] snes_conv_reason:   11
  newton =   1 [     260] linear =   123 [     33343] cuts =  0 [   0]
  --> max chng: dpmx=   3.9567E-06 dtmpmx=   1.1184E-07

== TH FLOW =====================================================================
 Step    252 Time=  1.20000E+01 Dt=  5.00000E-02 [y] snes_conv_reason:   11
  newton =   1 [     261] linear =   115 [     33458] cuts =  0 [   0]
  --> max chng: dpmx=   3.8360E-06 dtmpmx=   1.1124E-07

== TH FLOW =====================================================================
 Step    253 Time=  1.20500E+01 Dt=  5.00000E-02 [y] snes_conv_reason:   11
  newton =   1 [     262] linear =   122 [     33580] cuts =  0 [   0]
  --> max chng: dpmx=   3.7092E-06 dtmpmx=   1.1056E-07

== TH FLOW =====================================================================
 Step    254 Time=  1.21000E+01 Dt=  5.00000E-02 [y] snes_conv_reason:   11
  newton =   1 [     263] linear =   123 [     33703] cuts =  0 [   0]
  --> max chng: dpmx=   3.5813E-06 dtmpmx=   1.0995E-07

== TH FLOW =====================================================================
 Step    255 Time=  1.21500E+01 Dt=  5.00000E-02 [y] snes_conv_reason:   11
  newton =   1 [     264] linear =   121 [     33824] cuts =  0 [   0]
  --> max chng: dpmx=   3.4524E-06 dtmpmx=   1.0910E-07

== TH FLOW =====================================================================
 Step    256 Time=  1.22000E+01 Dt=  5.00000E-02 [y] snes_conv_reason:   11
  newton =   1 [     265] linear =   126 [     33950] cuts =  0 [   0]
  --> max chng: dpmx=   3.3212E-06 dtmpmx=   1.0777E-07

== TH FLOW =====================================================================
 Step    257 Time=  1.22500E+01 Dt=  5.00000E-02 [y] snes_conv_reason:   11
  newton =   1 [     266] linear =   124 [     34074] cuts =  0 [   0]
  --> max chng: dpmx=   3.1913E-06 dtmpmx=   1.0613E-07

[...]
 Step    493 Time=  2.40500E+01 Dt=  5.00000E-02 [y] snes_conv_reason:   11
  newton =   1 [     502] linear =    72 [     61753] cuts =  0 [   0]
  --> max chng: dpmx=   2.3283E-10 dtmpmx=   8.0975E-11

== TH FLOW =====================================================================
 Step    494 Time=  2.41000E+01 Dt=  5.00000E-02 [y] snes_conv_reason:   11
  newton =   1 [     503] linear =   113 [     61866] cuts =  0 [   0]
  --> max chng: dpmx=   2.3283E-10 dtmpmx=   7.7733E-11

== TH FLOW =====================================================================
 Step    495 Time=  2.41500E+01 Dt=  5.00000E-02 [y] snes_conv_reason:   11
  newton =   1 [     504] linear =    78 [     61944] cuts =  0 [   0]
  --> max chng: dpmx=   2.3283E-10 dtmpmx=   8.0343E-11

== TH FLOW =====================================================================
 Step    496 Time=  2.42000E+01 Dt=  5.00000E-02 [y] snes_conv_reason:   11
  newton =   1 [     505] linear =    85 [     62029] cuts =  0 [   0]
  --> max chng: dpmx=   2.3283E-10 dtmpmx=   8.5729E-11

== TH FLOW =====================================================================
 Step    497 Time=  2.42500E+01 Dt=  5.00000E-02 [y] snes_conv_reason:   11
  newton =   1 [     506] linear =   110 [     62139] cuts =  0 [   0]
  --> max chng: dpmx=   2.3283E-10 dtmpmx=   7.7204E-11

== TH FLOW =====================================================================
 Step    498 Time=  2.43000E+01 Dt=  5.00000E-02 [y] snes_conv_reason:   11
  newton =   1 [     507] linear =    67 [     62206] cuts =  0 [   0]
  --> max chng: dpmx=   2.3283E-10 dtmpmx=   7.8440E-11

== TH FLOW =====================================================================
 Step    499 Time=  2.43500E+01 Dt=  5.00000E-02 [y] snes_conv_reason:   11
  newton =   1 [     508] linear =   113 [     62319] cuts =  0 [   0]
  --> max chng: dpmx=   2.3283E-10 dtmpmx=   7.6396E-11

== TH FLOW =====================================================================
 Step    500 Time=  2.44000E+01 Dt=  5.00000E-02 [y] snes_conv_reason:   11
  newton =   1 [     509] linear =   106 [     62425] cuts =  0 [   0]
  --> max chng: dpmx=   2.3283E-10 dtmpmx=   7.8924E-11

== TH FLOW =====================================================================
 Step    501 Time=  2.44500E+01 Dt=  5.00000E-02 [y] snes_conv_reason:   11
  newton =   1 [     510] linear =   129 [     62554] cuts =  0 [   0]
  --> max chng: dpmx=   2.3283E-10 dtmpmx=   7.8177E-11

== TH FLOW =====================================================================
 Step    502 Time=  2.45000E+01 Dt=  5.00000E-02 [y] snes_conv_reason:   11
  newton =   1 [     511] linear =    64 [     62618] cuts =  0 [   0]
  --> max chng: dpmx=   2.3283E-10 dtmpmx=   9.4568E-11

== TH FLOW =====================================================================
 Step    503 Time=  2.45500E+01 Dt=  5.00000E-02 [y] snes_conv_reason:   11
  newton =   1 [     512] linear =   117 [     62735] cuts =  0 [   0]
  --> max chng: dpmx=   2.3283E-10 dtmpmx=   8.3928E-11

== TH FLOW =====================================================================
 Step    504 Time=  2.46000E+01 Dt=  5.00000E-02 [y] snes_conv_reason:   11
  newton =   1 [     513] linear =   136 [     62871] cuts =  0 [   0]
  --> max chng: dpmx=   2.3283E-10 dtmpmx=   8.2034E-11

== TH FLOW =====================================================================
 Step    505 Time=  2.46500E+01 Dt=  5.00000E-02 [y] snes_conv_reason:   11
  newton =   1 [     514] linear =    68 [     62939] cuts =  0 [   0]
  --> max chng: dpmx=   2.3283E-10 dtmpmx=   7.5865E-11

== TH FLOW =====================================================================
 Step    506 Time=  2.47000E+01 Dt=  5.00000E-02 [y] snes_conv_reason:   11
  newton =   1 [     515] linear =    81 [     63020] cuts =  0 [   0]
  --> max chng: dpmx=   2.3283E-10 dtmpmx=   7.5657E-11

== TH FLOW =====================================================================
 Step    507 Time=  2.47500E+01 Dt=  5.00000E-02 [y] snes_conv_reason:   11
  newton =   1 [     516] linear =   122 [     63142] cuts =  0 [   0]
  --> max chng: dpmx=   2.3283E-10 dtmpmx=   7.4012E-11

== TH FLOW =====================================================================
 Step    508 Time=  2.48000E+01 Dt=  5.00000E-02 [y] snes_conv_reason:   11
  newton =   1 [     517] linear =   107 [     63249] cuts =  0 [   0]
  --> max chng: dpmx=   2.3283E-10 dtmpmx=   8.1025E-11

== TH FLOW =====================================================================
 Step    509 Time=  2.48500E+01 Dt=  5.00000E-02 [y] snes_conv_reason:   11
  newton =   1 [     518] linear =   107 [     63356] cuts =  0 [   0]
  --> max chng: dpmx=   2.3283E-10 dtmpmx=   7.4110E-11

== TH FLOW =====================================================================
 Step    510 Time=  2.49000E+01 Dt=  5.00000E-02 [y] snes_conv_reason:   11
  newton =   1 [     519] linear =   113 [     63469] cuts =  0 [   0]
  --> max chng: dpmx=   2.3283E-10 dtmpmx=   7.4360E-11

== TH FLOW =====================================================================
 Step    511 Time=  2.49500E+01 Dt=  5.00000E-02 [y] snes_conv_reason:   11
  newton =   1 [     520] linear =    82 [     63551] cuts =  0 [   0]
  --> max chng: dpmx=   2.3283E-10 dtmpmx=   7.4264E-11

== TH FLOW =====================================================================
 Step    512 Time=  2.50000E+01 Dt=  5.00000E-02 [y] snes_conv_reason:   11
  newton =   1 [     521] linear =    97 [     63648] cuts =  0 [   0]
  --> max chng: dpmx=   2.3283E-10 dtmpmx=   8.3693E-11

== TH FLOW =====================================================================
 Step    513 Time=  2.50500E+01 Dt=  5.00000E-02 [y] snes_conv_reason:   11
  newton =   1 [     522] linear =    59 [     63707] cuts =  0 [   0]
  --> max chng: dpmx=   2.3283E-10 dtmpmx=   7.9298E-11

== TH FLOW =====================================================================
 Step    514 Time=  2.51000E+01 Dt=  5.00000E-02 [y] snes_conv_reason:   11
  newton =   1 [     523] linear =   102 [     63809] cuts =  0 [   0]
  --> max chng: dpmx=   2.3283E-10 dtmpmx=   8.2386E-11

== TH FLOW =====================================================================
 Step    515 Time=  2.51500E+01 Dt=  5.00000E-02 [y] snes_conv_reason:   11
  newton =   1 [     524] linear =    99 [     63908] cuts =  0 [   0]
  --> max chng: dpmx=   2.3283E-10 dtmpmx=   8.3560E-11

== TH FLOW =====================================================================
 Step    516 Time=  2.52000E+01 Dt=  5.00000E-02 [y] snes_conv_reason:   11
  newton =   1 [     525] linear =    84 [     63992] cuts =  0 [   0]
  --> max chng: dpmx=   2.3283E-10 dtmpmx=   7.7680E-11

== TH FLOW =====================================================================
 Step    517 Time=  2.52500E+01 Dt=  5.00000E-02 [y] snes_conv_reason:   11
  newton =   1 [     526] linear =   105 [     64097] cuts =  0 [   0]
  --> max chng: dpmx=   2.3283E-10 dtmpmx=   7.8263E-11

== TH FLOW =====================================================================
 Step    518 Time=  2.53000E+01 Dt=  5.00000E-02 [y] snes_conv_reason:   11
  newton =   1 [     527] linear =   112 [     64209] cuts =  0 [   0]
  --> max chng: dpmx=   2.3283E-10 dtmpmx=   7.9158E-11

== TH FLOW =====================================================================
 Step    519 Time=  2.53500E+01 Dt=  5.00000E-02 [y] snes_conv_reason:   11
  newton =   1 [     528] linear =    66 [     64275] cuts =  0 [   0]
  --> max chng: dpmx=   2.3283E-10 dtmpmx=   7.5428E-11

== TH FLOW =====================================================================
 Step    520 Time=  2.54000E+01 Dt=  5.00000E-02 [y] snes_conv_reason:   11
  newton =   1 [     529] linear =   122 [     64397] cuts =  0 [   0]
  --> max chng: dpmx=   2.3283E-10 dtmpmx=   7.9476E-11

== TH FLOW =====================================================================
 Step    521 Time=  2.54500E+01 Dt=  5.00000E-02 [y] snes_conv_reason:   11
  newton =   1 [     530] linear =    62 [     64459] cuts =  0 [   0]
  --> max chng: dpmx=   2.3283E-10 dtmpmx=   7.3811E-11

== TH FLOW =====================================================================
 Step    522 Time=  2.55000E+01 Dt=  5.00000E-02 [y] snes_conv_reason:   11
  newton =   1 [     531] linear =    76 [     64535] cuts =  0 [   0]
  --> max chng: dpmx=   2.3283E-10 dtmpmx=   7.4415E-11

== TH FLOW =====================================================================
 Step    523 Time=  2.55500E+01 Dt=  5.00000E-02 [y] snes_conv_reason:   11
  newton =   1 [     532] linear =   111 [     64646] cuts =  0 [   0]
  --> max chng: dpmx=   2.3283E-10 dtmpmx=   8.3212E-11

== TH FLOW =====================================================================
 Step    524 Time=  2.56000E+01 Dt=  5.00000E-02 [y] snes_conv_reason:   11
  newton =   1 [     533] linear =   108 [     64754] cuts =  0 [   0]
  --> max chng: dpmx=   2.3283E-10 dtmpmx=   9.2147E-11

== TH FLOW =====================================================================
 Step    525 Time=  2.56500E+01 Dt=  5.00000E-02 [y] snes_conv_reason:   11
  newton =   1 [     534] linear =    80 [     64834] cuts =  0 [   0]
  --> max chng: dpmx=   2.3283E-10 dtmpmx=   7.6222E-11

== TH FLOW =====================================================================
 Step    526 Time=  2.57000E+01 Dt=  5.00000E-02 [y] snes_conv_reason:   11
  newton =   1 [     535] linear =    94 [     64928] cuts =  0 [   0]
  --> max chng: dpmx=   2.3283E-10 dtmpmx=   7.5595E-11

== TH FLOW =====================================================================
 Step    527 Time=  2.57500E+01 Dt=  5.00000E-02 [y] snes_conv_reason:   11
  newton =   1 [     536] linear =   104 [     65032] cuts =  0 [   0]
  --> max chng: dpmx=   2.3283E-10 dtmpmx=   9.2392E-11

== TH FLOW =====================================================================
 Step    528 Time=  2.58000E+01 Dt=  5.00000E-02 [y] snes_conv_reason:   11
  newton =   1 [     537] linear =    85 [     65117] cuts =  0 [   0]
  --> max chng: dpmx=   2.3283E-10 dtmpmx=   8.0218E-11

== TH FLOW =====================================================================
 Step    529 Time=  2.58500E+01 Dt=  5.00000E-02 [y] snes_conv_reason:   11
  newton =   1 [     538] linear =   110 [     65227] cuts =  0 [   0]
  --> max chng: dpmx=   2.3283E-10 dtmpmx=   7.5898E-11

== TH FLOW =====================================================================
 Step    530 Time=  2.59000E+01 Dt=  5.00000E-02 [y] snes_conv_reason:   11
  newton =   1 [     539] linear =   102 [     65329] cuts =  0 [   0]
  --> max chng: dpmx=   2.3283E-10 dtmpmx=   6.9607E-11

== TH FLOW =====================================================================
 Step    531 Time=  2.59500E+01 Dt=  5.00000E-02 [y] snes_conv_reason:   11
  newton =   1 [     540] linear =    78 [     65407] cuts =  0 [   0]
  --> max chng: dpmx=   2.3283E-10 dtmpmx=   7.3975E-11

== TH FLOW =====================================================================
 Step    532 Time=  2.60000E+01 Dt=  5.00000E-02 [y] snes_conv_reason:   11
  newton =   1 [     541] linear =    70 [     65477] cuts =  0 [   0]
  --> max chng: dpmx=   2.3283E-10 dtmpmx=   7.6662E-11

== TH FLOW =====================================================================
 Step    533 Time=  2.60500E+01 Dt=  5.00000E-02 [y] snes_conv_reason:   11
  newton =   1 [     542] linear =   116 [     65593] cuts =  0 [   0]
  --> max chng: dpmx=   2.3283E-10 dtmpmx=   7.5739E-11

== TH FLOW =====================================================================
 Step    534 Time=  2.61000E+01 Dt=  5.00000E-02 [y] snes_conv_reason:   11
  newton =   1 [     543] linear =   124 [     65717] cuts =  0 [   0]
  --> max chng: dpmx=   2.3283E-10 dtmpmx=   7.6462E-11

== TH FLOW =====================================================================
 Step    535 Time=  2.61500E+01 Dt=  5.00000E-02 [y] snes_conv_reason:   11
  newton =   1 [     544] linear =   113 [     65830] cuts =  0 [   0]
  --> max chng: dpmx=   2.3283E-10 dtmpmx=   7.1910E-11

== TH FLOW =====================================================================
 Step    536 Time=  2.62000E+01 Dt=  5.00000E-02 [y] snes_conv_reason:   11
  newton =   1 [     545] linear =   120 [     65950] cuts =  0 [   0]
  --> max chng: dpmx=   2.3283E-10 dtmpmx=   7.6110E-11

== TH FLOW =====================================================================
 Step    537 Time=  2.62500E+01 Dt=  5.00000E-02 [y] snes_conv_reason:   11
  newton =   1 [     546] linear =    79 [     66029] cuts =  0 [   0]
  --> max chng: dpmx=   2.3283E-10 dtmpmx=   7.7819E-11

== TH FLOW =====================================================================
 Step    538 Time=  2.63000E+01 Dt=  5.00000E-02 [y] snes_conv_reason:   11
  newton =   1 [     547] linear =    67 [     66096] cuts =  0 [   0]
  --> max chng: dpmx=   2.3283E-10 dtmpmx=   8.9374E-11

== TH FLOW =====================================================================
 Step    539 Time=  2.63500E+01 Dt=  5.00000E-02 [y] snes_conv_reason:   11
  newton =   1 [     548] linear =    75 [     66171] cuts =  0 [   0]
  --> max chng: dpmx=   2.3283E-10 dtmpmx=   7.7847E-11

== TH FLOW =====================================================================
 Step    540 Time=  2.64000E+01 Dt=  5.00000E-02 [y] snes_conv_reason:   11
  newton =   1 [     549] linear =    83 [     66254] cuts =  0 [   0]
  --> max chng: dpmx=   2.3283E-10 dtmpmx=   1.0044E-10

== TH FLOW =====================================================================
 Step    541 Time=  2.64500E+01 Dt=  5.00000E-02 [y] snes_conv_reason:   11
  newton =   1 [     550] linear =   111 [     66365] cuts =  0 [   0]
  --> max chng: dpmx=   2.3283E-10 dtmpmx=   7.4374E-11

== TH FLOW =====================================================================
 Step    542 Time=  2.65000E+01 Dt=  5.00000E-02 [y] snes_conv_reason:   11
  newton =   1 [     551] linear =    70 [     66435] cuts =  0 [   0]
  --> max chng: dpmx=   2.3283E-10 dtmpmx=   9.2086E-11

== TH FLOW =====================================================================
 Step    543 Time=  2.65500E+01 Dt=  5.00000E-02 [y] snes_conv_reason:   11
  newton =   1 [     552] linear =   123 [     66558] cuts =  0 [   0]
  --> max chng: dpmx=   2.3283E-10 dtmpmx=   7.4873E-11

== TH FLOW =====================================================================
 Step    544 Time=  2.66000E+01 Dt=  5.00000E-02 [y] snes_conv_reason:   11
  newton =   1 [     553] linear =    98 [     66656] cuts =  0 [   0]
  --> max chng: dpmx=   2.3283E-10 dtmpmx=   7.3955E-11

== TH FLOW =====================================================================
 Step    545 Time=  2.66500E+01 Dt=  5.00000E-02 [y] snes_conv_reason:   11
  newton =   1 [     554] linear =   134 [     66790] cuts =  0 [   0]
  --> max chng: dpmx=   2.3283E-10 dtmpmx=   8.9095E-11

== TH FLOW =====================================================================
 Step    546 Time=  2.67000E+01 Dt=  5.00000E-02 [y] snes_conv_reason:   11
  newton =   1 [     555] linear =   105 [     66895] cuts =  0 [   0]
  --> max chng: dpmx=   2.3283E-10 dtmpmx=   7.7501E-11

== TH FLOW =====================================================================
 Step    547 Time=  2.67500E+01 Dt=  5.00000E-02 [y] snes_conv_reason:   11
  newton =   1 [     556] linear =   128 [     67023] cuts =  0 [   0]
  --> max chng: dpmx=   2.3283E-10 dtmpmx=   8.7324E-11

== TH FLOW =====================================================================
 Step    548 Time=  2.68000E+01 Dt=  5.00000E-02 [y] snes_conv_reason:   11
  newton =   1 [     557] linear =   117 [     67140] cuts =  0 [   0]
  --> max chng: dpmx=   2.3283E-10 dtmpmx=   7.5604E-11

== TH FLOW =====================================================================
 Step    549 Time=  2.68500E+01 Dt=  5.00000E-02 [y] snes_conv_reason:   11
  newton =   1 [     558] linear =    67 [     67207] cuts =  0 [   0]
  --> max chng: dpmx=   2.3283E-10 dtmpmx=   8.7876E-11

== TH FLOW =====================================================================
 Step    550 Time=  2.69000E+01 Dt=  5.00000E-02 [y] snes_conv_reason:   11
  newton =   1 [     559] linear =    87 [     67294] cuts =  0 [   0]
  --> max chng: dpmx=   2.3283E-10 dtmpmx=   7.5962E-11

== TH FLOW =====================================================================
 Step    551 Time=  2.69500E+01 Dt=  5.00000E-02 [y] snes_conv_reason:   11
  newton =   1 [     560] linear =   137 [     67431] cuts =  0 [   0]
  --> max chng: dpmx=   2.3283E-10 dtmpmx=   8.3849E-11

== TH FLOW =====================================================================
 Step    552 Time=  2.70000E+01 Dt=  5.00000E-02 [y] snes_conv_reason:   11
  newton =   1 [     561] linear =    55 [     67486] cuts =  0 [   0]
  --> max chng: dpmx=   2.3283E-10 dtmpmx=   8.6093E-11

== TH FLOW =====================================================================
 Step    553 Time=  2.70500E+01 Dt=  5.00000E-02 [y] snes_conv_reason:   11
  newton =   1 [     562] linear =   103 [     67589] cuts =  0 [   0]
  --> max chng: dpmx=   2.3283E-10 dtmpmx=   8.8422E-11

== TH FLOW =====================================================================
 Step    554 Time=  2.71000E+01 Dt=  5.00000E-02 [y] snes_conv_reason:   11
  newton =   1 [     563] linear =   112 [     67701] cuts =  0 [   0]
  --> max chng: dpmx=   2.3283E-10 dtmpmx=   9.3108E-11

== TH FLOW =====================================================================
 Step    555 Time=  2.71500E+01 Dt=  5.00000E-02 [y] snes_conv_reason:   11
  newton =   1 [     564] linear =   103 [     67804] cuts =  0 [   0]
  --> max chng: dpmx=   2.3283E-10 dtmpmx=   7.1749E-11

== TH FLOW =====================================================================
 Step    556 Time=  2.72000E+01 Dt=  5.00000E-02 [y] snes_conv_reason:   11
  newton =   1 [     565] linear =   111 [     67915] cuts =  0 [   0]
  --> max chng: dpmx=   2.3283E-10 dtmpmx=   8.4674E-11

== TH FLOW =====================================================================
 Step    557 Time=  2.72500E+01 Dt=  5.00000E-02 [y] snes_conv_reason:   11
  newton =   1 [     566] linear =   104 [     68019] cuts =  0 [   0]
  --> max chng: dpmx=   2.3283E-10 dtmpmx=   7.5218E-11

== TH FLOW =====================================================================
 Step    558 Time=  2.73000E+01 Dt=  5.00000E-02 [y] snes_conv_reason:   11
  newton =   1 [     567] linear =    80 [     68099] cuts =  0 [   0]
  --> max chng: dpmx=   2.3283E-10 dtmpmx=   7.6819E-11

== TH FLOW =====================================================================
 Step    559 Time=  2.73500E+01 Dt=  5.00000E-02 [y] snes_conv_reason:   11
  newton =   1 [     568] linear =    70 [     68169] cuts =  0 [   0]
  --> max chng: dpmx=   2.3283E-10 dtmpmx=   7.2600E-11

== TH FLOW =====================================================================
 Step    560 Time=  2.74000E+01 Dt=  5.00000E-02 [y] snes_conv_reason:   11
  newton =   1 [     569] linear =   140 [     68309] cuts =  0 [   0]
  --> max chng: dpmx=   2.3283E-10 dtmpmx=   8.8969E-11

== TH FLOW =====================================================================
 Step    561 Time=  2.74500E+01 Dt=  5.00000E-02 [y] snes_conv_reason:   11
  newton =   1 [     570] linear =    97 [     68406] cuts =  0 [   0]
  --> max chng: dpmx=   2.3283E-10 dtmpmx=   8.4116E-11

== TH FLOW =====================================================================
 Step    562 Time=  2.75000E+01 Dt=  5.00000E-02 [y] snes_conv_reason:   11
  newton =   1 [     571] linear =    90 [     68496] cuts =  0 [   0]
  --> max chng: dpmx=   2.3283E-10 dtmpmx=   8.3215E-11

 Wall Clock Time:  9.0566E+01 [sec]   1.5094E+00 [min]   2.5157E-02 [hr]
