
===================
  PFLOTRAN v3.0.1
===================

 Extent of Gridded Domain
  X: 2.5000000000000000 - 97.500000000000000
  Y: 2.5000000000000000 - 1277.5000000000000
  Z: 2.5000000000000000 - 2.5000000000000000


=+=+=+=+=+=+=+=+=+=+=+=+=+=+=+=+=+=+=+=+=+=+=+=+=+=+=+=+=+=+=+=+=+=+=+=+=+=+=+=+

  Initial Condition

--------------------------------------------------------------------------------
          Flow Condition:   initial
                  Region:   all
--------------------------------------------------------------------------------

  Flow Condition: initial
    Synchronize time with update: no
    Time units: yr
    Length units: m
      Datum:
        Dataset: Unnamed Ascii Dataset
          Type: dataset_ascii_type
          Transient: no
          Array Rank:  3

    Sub Condition: pressure
      Type: hydrostatic
      Gradient:
        Dataset: Unnamed Ascii Dataset
          Type: dataset_ascii_type
          Transient: no
          Array Rank:  3
      Data:
        Dataset: Unnamed Ascii Dataset
          Type: dataset_ascii_type
          Transient: no
          Array Rank:  1

    Sub Condition: temperature
      Type: dirichlet
      Gradient:
      Data:
        Dataset: Unnamed Ascii Dataset
          Type: dataset_ascii_type
          Transient: no
          Array Rank:  1

--------------------------------------------------------------------------------

=+=+=+=+=+=+=+=+=+=+=+=+=+=+=+=+=+=+=+=+=+=+=+=+=+=+=+=+=+=+=+=+=+=+=+=+=+=+=+=+

  Boundary Condition

--------------------------------------------------------------------------------
          Flow Condition:   initial
                  Region:   north
--------------------------------------------------------------------------------

  Flow Condition: initial
    Synchronize time with update: no
    Time units: yr
    Length units: m
      Datum:
        Dataset: Unnamed Ascii Dataset
          Type: dataset_ascii_type
          Transient: no
          Array Rank:  3

    Sub Condition: pressure
      Type: hydrostatic
      Gradient:
        Dataset: Unnamed Ascii Dataset
          Type: dataset_ascii_type
          Transient: no
          Array Rank:  3
      Data:
        Dataset: Unnamed Ascii Dataset
          Type: dataset_ascii_type
          Transient: no
          Array Rank:  1

    Sub Condition: temperature
      Type: dirichlet
      Gradient:
      Data:
        Dataset: Unnamed Ascii Dataset
          Type: dataset_ascii_type
          Transient: no
          Array Rank:  1

--------------------------------------------------------------------------------

=+=+=+=+=+=+=+=+=+=+=+=+=+=+=+=+=+=+=+=+=+=+=+=+=+=+=+=+=+=+=+=+=+=+=+=+=+=+=+=+

  Boundary Condition

--------------------------------------------------------------------------------
          Flow Condition:   initial
                  Region:   south
--------------------------------------------------------------------------------

  Flow Condition: initial
    Synchronize time with update: no
    Time units: yr
    Length units: m
      Datum:
        Dataset: Unnamed Ascii Dataset
          Type: dataset_ascii_type
          Transient: no
          Array Rank:  3

    Sub Condition: pressure
      Type: hydrostatic
      Gradient:
        Dataset: Unnamed Ascii Dataset
          Type: dataset_ascii_type
          Transient: no
          Array Rank:  3
      Data:
        Dataset: Unnamed Ascii Dataset
          Type: dataset_ascii_type
          Transient: no
          Array Rank:  1

    Sub Condition: temperature
      Type: dirichlet
      Gradient:
      Data:
        Dataset: Unnamed Ascii Dataset
          Type: dataset_ascii_type
          Transient: no
          Array Rank:  1

--------------------------------------------------------------------------------

=+=+=+=+=+=+=+=+=+=+=+=+=+=+=+=+=+=+=+=+=+=+=+=+=+=+=+=+=+=+=+=+=+=+=+=+=+=+=+=+

  Source Sink

--------------------------------------------------------------------------------
          Flow Condition:   injection
                  Region:   heatpump_inject0
--------------------------------------------------------------------------------

  Flow Condition: injection
    Synchronize time with update: no
    Time units: yr
    Length units: m
      Datum:

    Sub Condition: rate
      Type: scaled volumetric rate
      Gradient:
      Data:
        Dataset: Unnamed Ascii Dataset
          Type: dataset_ascii_type
          Is transient?: yes
          Number of times:      3
          Is cyclic?: no
          Buffer:
            Rank:  2
            Dims:    1   3
            Buffer Slice Size:   0
          Array Rank:  1

    Sub Condition: temperature
      Type: dirichlet
      Gradient:
      Data:
        Dataset: Unnamed Ascii Dataset
          Type: dataset_ascii_type
          Transient: no
          Array Rank:  1

--------------------------------------------------------------------------------

 Requested processors =    16

FLOW Time Stepper
                 acceleration: on
       acceleration threshold: 5
       number of ramp entries: 5
                ramp entry #1: 2.0000
                ramp entry #2: 2.0000
                ramp entry #3: 2.0000
                ramp entry #4: 2.0000
                ramp entry #5: 2.0000
                ramp entry #6: 1.8000
                ramp entry #7: 1.6000
                ramp entry #8: 1.4000
                ramp entry #9: 1.2000
               ramp entry #10: 1.0000
               ramp entry #11: 1.0000
               ramp entry #12: 1.0000
               ramp entry #13: 1.0000
      maximum number of steps: 999999
constant time steps threshold: 5
       maximum number of cuts: 16
             reduction factor: 5.000000E-01
        maximum growth factor: 2.000000E+00

FLOW Newton Solver
                         atol: 1.000000E-50
                         rtol: 1.000000E-03
                         stol: 1.000000E-08
                         dtol: 1.000000E+04
                      maxnorm: 1.000000E+20
                    inftolres: -9.990000E+02
                    inftolupd: 1.000000E+00
                 inftolrelupd: -9.990000E+02
                 inftolsclres: -9.990000E+02
                     max iter: 50
                     min iter: 1
                         maxf: 10000
                  matrix type: baij
         precond. matrix type: baij
               inexact newton: off
            print convergence: on
   print detailed convergence: off
          check infinity norm: on

FLOW Linear Solver
                       solver: bcgs
               preconditioner: bjacobi
                         atol: 1.000000E-50
                         rtol: 1.000000E-05
                         dtol: 1.000000E+04
            maximum iteration: 10000

== TH FLOW =====================================================================
 Step      1 Time=  1.00000E-05 Dt=  1.00000E-05 [y] snes_conv_reason:   11
  newton =   1 [       1] linear =    63 [        63] cuts =  0 [   0]
  --> max chng: dpmx=   3.5225E-02 dtmpmx=   1.3288E-09

== TH FLOW =====================================================================
 Step      2 Time=  3.00000E-05 Dt=  2.00000E-05 [y] snes_conv_reason:   11
  newton =   1 [       2] linear =    63 [       126] cuts =  0 [   0]
  --> max chng: dpmx=   4.4330E-02 dtmpmx=   2.6250E-09

== TH FLOW =====================================================================
 Step      3 Time=  7.00000E-05 Dt=  4.00000E-05 [y] snes_conv_reason:   11
  newton =   1 [       3] linear =    59 [       185] cuts =  0 [   0]
  --> max chng: dpmx=   3.7580E-02 dtmpmx=   5.1861E-09

== TH FLOW =====================================================================
 Step      4 Time=  1.50000E-04 Dt=  8.00000E-05 [y] snes_conv_reason:   11
  newton =   1 [       4] linear =    53 [       238] cuts =  0 [   0]
  --> max chng: dpmx=   1.9804E-02 dtmpmx=   1.0303E-08

== TH FLOW =====================================================================
 Step      5 Time=  3.10000E-04 Dt=  1.60000E-04 [y] snes_conv_reason:   11
  newton =   1 [       5] linear =    63 [       301] cuts =  0 [   0]
  --> max chng: dpmx=   5.9882E-03 dtmpmx=   2.0564E-08

== TH FLOW =====================================================================
 Step      6 Time=  6.30000E-04 Dt=  3.20000E-04 [y] snes_conv_reason:   11
  newton =   1 [       6] linear =   113 [       414] cuts =  0 [   0]
  --> max chng: dpmx=   9.7875E-04 dtmpmx=   4.1114E-08

== TH FLOW =====================================================================
 Step      7 Time=  1.27000E-03 Dt=  6.40000E-04 [y] snes_conv_reason:   11
  newton =   1 [       7] linear =   112 [       526] cuts =  0 [   0]
  --> max chng: dpmx=   8.3223E-05 dtmpmx=   8.2228E-08

== TH FLOW =====================================================================
 Step      8 Time=  2.55000E-03 Dt=  1.28000E-03 [y] snes_conv_reason:   11
  newton =   1 [       8] linear =   114 [       640] cuts =  0 [   0]
  --> max chng: dpmx=   3.2739E-06 dtmpmx=   1.6446E-07

== TH FLOW =====================================================================
 Step      9 Time=  5.11000E-03 Dt=  2.56000E-03 [y] snes_conv_reason:   11
  newton =   1 [       9] linear =   114 [       754] cuts =  0 [   0]
  --> max chng: dpmx=   1.4477E-06 dtmpmx=   3.2891E-07

== TH FLOW =====================================================================
 Step     10 Time=  1.02300E-02 Dt=  5.12000E-03 [y] snes_conv_reason:   11
  newton =   1 [      10] linear =   119 [       873] cuts =  0 [   0]
  --> max chng: dpmx=   2.9535E-06 dtmpmx=   6.5782E-07

== TH FLOW =====================================================================
 Step     11 Time=  2.04700E-02 Dt=  1.02400E-02 [y] snes_conv_reason:   11
  newton =   1 [      11] linear =   121 [       994] cuts =  0 [   0]
  --> max chng: dpmx=   6.1142E-06 dtmpmx=   1.3156E-06

== TH FLOW =====================================================================
 Step     12 Time=  4.09500E-02 Dt=  2.04800E-02 [y] snes_conv_reason:   11
  newton =   1 [      12] linear =   121 [      1115] cuts =  0 [   0]
  --> max chng: dpmx=   1.3047E-05 dtmpmx=   2.6313E-06

== TH FLOW =====================================================================
 Step     13 Time=  8.19100E-02 Dt=  4.09600E-02 [y] snes_conv_reason:   11
  newton =   1 [      13] linear =   123 [      1238] cuts =  0 [   0]
  --> max chng: dpmx=   2.9406E-05 dtmpmx=   5.2626E-06

== TH FLOW =====================================================================
 Step     14 Time=  1.00000E-01 Dt=  1.80900E-02 [y] snes_conv_reason:   11
  newton =   1 [      14] linear =   114 [      1352] cuts =  0 [   0]
  --> max chng: dpmx=   1.3624E-05 dtmpmx=   2.3242E-06

== TH FLOW =====================================================================
 Step     15 Time=  1.50000E-01 Dt=  5.00000E-02 [y] snes_conv_reason:   11
  newton =   1 [      15] linear =   121 [      1473] cuts =  0 [   0]
  --> max chng: dpmx=   4.2570E-05 dtmpmx=   6.4241E-06

== TH FLOW =====================================================================
 Step     16 Time=  2.00000E-01 Dt=  5.00000E-02 [y] snes_conv_reason:   11
  newton =   1 [      16] linear =   120 [      1593] cuts =  0 [   0]
  --> max chng: dpmx=   4.7384E-05 dtmpmx=   6.4241E-06

== TH FLOW =====================================================================
 Step     17 Time=  2.50000E-01 Dt=  5.00000E-02 [y] snes_conv_reason:    3
  newton =   3 [      19] linear =   349 [      1942] cuts =  0 [   0]
  --> max chng: dpmx=   3.2631E+03 dtmpmx=   3.5132E+00

== TH FLOW =====================================================================
 Step     18 Time=  3.00000E-01 Dt=  5.00000E-02 [y] snes_conv_reason:   11
  newton =   2 [      21] linear =   238 [      2180] cuts =  0 [   0]
  --> max chng: dpmx=   2.0190E+01 dtmpmx=   1.2782E+00

== TH FLOW =====================================================================
 Step     19 Time=  3.50000E-01 Dt=  5.00000E-02 [y] snes_conv_reason:   11
  newton =   2 [      23] linear =   236 [      2416] cuts =  0 [   0]
  --> max chng: dpmx=   1.0166E+01 dtmpmx=   8.5967E-01

== TH FLOW =====================================================================
 Step     20 Time=  4.00000E-01 Dt=  5.00000E-02 [y] snes_conv_reason:   11
  newton =   2 [      25] linear =   219 [      2635] cuts =  0 [   0]
  --> max chng: dpmx=   6.1765E+00 dtmpmx=   6.7364E-01

== TH FLOW =====================================================================
 Step     21 Time=  4.50000E-01 Dt=  5.00000E-02 [y] snes_conv_reason:   11
  newton =   2 [      27] linear =   229 [      2864] cuts =  0 [   0]
  --> max chng: dpmx=   4.3926E+00 dtmpmx=   5.6661E-01

== TH FLOW =====================================================================
 Step     22 Time=  5.00000E-01 Dt=  5.00000E-02 [y] snes_conv_reason:    3
  newton =   1 [      28] linear =   117 [      2981] cuts =  0 [   0]
  --> max chng: dpmx=   3.4380E+00 dtmpmx=   4.7892E-01

== TH FLOW =====================================================================
 Step     23 Time=  5.50000E-01 Dt=  5.00000E-02 [y] snes_conv_reason:    3
  newton =   1 [      29] linear =   121 [      3102] cuts =  0 [   0]
  --> max chng: dpmx=   3.0572E+00 dtmpmx=   4.4283E-01

== TH FLOW =====================================================================
 Step     24 Time=  6.00000E-01 Dt=  5.00000E-02 [y] snes_conv_reason:    3
  newton =   1 [      30] linear =   122 [      3224] cuts =  0 [   0]
  --> max chng: dpmx=   2.9706E+00 dtmpmx=   3.9437E-01

== TH FLOW =====================================================================
 Step     25 Time=  6.50000E-01 Dt=  5.00000E-02 [y] snes_conv_reason:    3
  newton =   1 [      31] linear =   124 [      3348] cuts =  0 [   0]
  --> max chng: dpmx=   2.8893E+00 dtmpmx=   3.5588E-01

== TH FLOW =====================================================================
 Step     26 Time=  7.00000E-01 Dt=  5.00000E-02 [y] snes_conv_reason:    3
  newton =   1 [      32] linear =   122 [      3470] cuts =  0 [   0]
  --> max chng: dpmx=   2.8470E+00 dtmpmx=   3.3934E-01

== TH FLOW =====================================================================
 Step     27 Time=  7.50000E-01 Dt=  5.00000E-02 [y] snes_conv_reason:    3
  newton =   1 [      33] linear =   127 [      3597] cuts =  0 [   0]
  --> max chng: dpmx=   2.7878E+00 dtmpmx=   3.1583E-01

== TH FLOW =====================================================================
 Step     28 Time=  8.00000E-01 Dt=  5.00000E-02 [y] snes_conv_reason:    3
  newton =   1 [      34] linear =   123 [      3720] cuts =  0 [   0]
  --> max chng: dpmx=   2.7476E+00 dtmpmx=   2.8834E-01

== TH FLOW =====================================================================
 Step     29 Time=  8.50000E-01 Dt=  5.00000E-02 [y] snes_conv_reason:    3
  newton =   1 [      35] linear =   131 [      3851] cuts =  0 [   0]
  --> max chng: dpmx=   2.7190E+00 dtmpmx=   2.7805E-01

== TH FLOW =====================================================================
 Step     30 Time=  9.00000E-01 Dt=  5.00000E-02 [y] snes_conv_reason:    3
  newton =   1 [      36] linear =   124 [      3975] cuts =  0 [   0]
  --> max chng: dpmx=   2.6785E+00 dtmpmx=   2.6716E-01

== TH FLOW =====================================================================
 Step     31 Time=  9.50000E-01 Dt=  5.00000E-02 [y] snes_conv_reason:    3
  newton =   1 [      37] linear =   124 [      4099] cuts =  0 [   0]
  --> max chng: dpmx=   2.6524E+00 dtmpmx=   2.5281E-01

== TH FLOW =====================================================================
 Step     32 Time=  1.00000E+00 Dt=  5.00000E-02 [y] snes_conv_reason:    3
  newton =   1 [      38] linear =   127 [      4226] cuts =  0 [   0]
  --> max chng: dpmx=   2.6339E+00 dtmpmx=   2.3614E-01

== TH FLOW =====================================================================
 Step     33 Time=  1.05000E+00 Dt=  5.00000E-02 [y] snes_conv_reason:    3
  newton =   1 [      39] linear =   123 [      4349] cuts =  0 [   0]
  --> max chng: dpmx=   2.6061E+00 dtmpmx=   2.3098E-01

== TH FLOW =====================================================================
 Step     34 Time=  1.10000E+00 Dt=  5.00000E-02 [y] snes_conv_reason:    3
  newton =   1 [      40] linear =   118 [      4467] cuts =  0 [   0]
  --> max chng: dpmx=   2.5825E+00 dtmpmx=   2.2431E-01

== TH FLOW =====================================================================
 Step     35 Time=  1.15000E+00 Dt=  5.00000E-02 [y] snes_conv_reason:    3
  newton =   1 [      41] linear =   124 [      4591] cuts =  0 [   0]
  --> max chng: dpmx=   2.5711E+00 dtmpmx=   2.1542E-01

== TH FLOW =====================================================================
 Step     36 Time=  1.20000E+00 Dt=  5.00000E-02 [y] snes_conv_reason:    3
  newton =   1 [      42] linear =   117 [      4708] cuts =  0 [   0]
  --> max chng: dpmx=   2.5519E+00 dtmpmx=   2.0483E-01

== TH FLOW =====================================================================
 Step     37 Time=  1.25000E+00 Dt=  5.00000E-02 [y] snes_conv_reason:    3
  newton =   1 [      43] linear =   125 [      4833] cuts =  0 [   0]
  --> max chng: dpmx=   2.5296E+00 dtmpmx=   1.9947E-01

== TH FLOW =====================================================================
 Step     38 Time=  1.30000E+00 Dt=  5.00000E-02 [y] snes_conv_reason:    3
  newton =   1 [      44] linear =   119 [      4952] cuts =  0 [   0]
  --> max chng: dpmx=   2.5226E+00 dtmpmx=   1.9559E-01

== TH FLOW =====================================================================
 Step     39 Time=  1.35000E+00 Dt=  5.00000E-02 [y] snes_conv_reason:    3
  newton =   1 [      45] linear =   122 [      5074] cuts =  0 [   0]
  --> max chng: dpmx=   2.5094E+00 dtmpmx=   1.9008E-01

== TH FLOW =====================================================================
 Step     40 Time=  1.40000E+00 Dt=  5.00000E-02 [y] snes_conv_reason:    3
  newton =   1 [      46] linear =   126 [      5200] cuts =  0 [   0]
  --> max chng: dpmx=   2.4905E+00 dtmpmx=   1.8325E-01

== TH FLOW =====================================================================
 Step     41 Time=  1.45000E+00 Dt=  5.00000E-02 [y] snes_conv_reason:    3
  newton =   1 [      47] linear =   124 [      5324] cuts =  0 [   0]
  --> max chng: dpmx=   2.4823E+00 dtmpmx=   1.7658E-01

== TH FLOW =====================================================================
 Step     42 Time=  1.50000E+00 Dt=  5.00000E-02 [y] snes_conv_reason:    3
  newton =   1 [      48] linear =   126 [      5450] cuts =  0 [   0]
  --> max chng: dpmx=   2.4733E+00 dtmpmx=   1.7453E-01

== TH FLOW =====================================================================
 Step     43 Time=  1.55000E+00 Dt=  5.00000E-02 [y] snes_conv_reason:    3
  newton =   1 [      49] linear =   124 [      5574] cuts =  0 [   0]
  --> max chng: dpmx=   2.4611E+00 dtmpmx=   1.7124E-01

== TH FLOW =====================================================================
 Step     44 Time=  1.60000E+00 Dt=  5.00000E-02 [y] snes_conv_reason:    3
  newton =   1 [      50] linear =   124 [      5698] cuts =  0 [   0]
  --> max chng: dpmx=   2.4477E+00 dtmpmx=   1.6687E-01

== TH FLOW =====================================================================
 Step     45 Time=  1.65000E+00 Dt=  5.00000E-02 [y] snes_conv_reason:    3
  newton =   1 [      51] linear =   124 [      5822] cuts =  0 [   0]
  --> max chng: dpmx=   2.4426E+00 dtmpmx=   1.6159E-01

== TH FLOW =====================================================================
 Step     46 Time=  1.70000E+00 Dt=  5.00000E-02 [y] snes_conv_reason:    3
  newton =   1 [      52] linear =   116 [      5938] cuts =  0 [   0]
  --> max chng: dpmx=   2.4345E+00 dtmpmx=   1.5809E-01

== TH FLOW =====================================================================
 Step     47 Time=  1.75000E+00 Dt=  5.00000E-02 [y] snes_conv_reason:    3
  newton =   1 [      53] linear =   122 [      6060] cuts =  0 [   0]
  --> max chng: dpmx=   2.4215E+00 dtmpmx=   1.5630E-01

== TH FLOW =====================================================================
 Step     48 Time=  1.80000E+00 Dt=  5.00000E-02 [y] snes_conv_reason:    3
  newton =   1 [      54] linear =   123 [      6183] cuts =  0 [   0]
  --> max chng: dpmx=   2.4156E+00 dtmpmx=   1.5361E-01

== TH FLOW =====================================================================
 Step     49 Time=  1.85000E+00 Dt=  5.00000E-02 [y] snes_conv_reason:    3
  newton =   1 [      55] linear =   124 [      6307] cuts =  0 [   0]
  --> max chng: dpmx=   2.4097E+00 dtmpmx=   1.5015E-01

== TH FLOW =====================================================================
 Step     50 Time=  1.90000E+00 Dt=  5.00000E-02 [y] snes_conv_reason:    3
  newton =   1 [      56] linear =   124 [      6431] cuts =  0 [   0]
  --> max chng: dpmx=   2.4014E+00 dtmpmx=   1.4600E-01

== TH FLOW =====================================================================
 Step     51 Time=  1.95000E+00 Dt=  5.00000E-02 [y] snes_conv_reason:    3
  newton =   1 [      57] linear =   124 [      6555] cuts =  0 [   0]
  --> max chng: dpmx=   2.3902E+00 dtmpmx=   1.4393E-01

== TH FLOW =====================================================================
 Step     52 Time=  2.00000E+00 Dt=  5.00000E-02 [y] snes_conv_reason:    3
  newton =   1 [      58] linear =   124 [      6679] cuts =  0 [   0]
  --> max chng: dpmx=   2.3878E+00 dtmpmx=   1.4244E-01

== TH FLOW =====================================================================
 Step     53 Time=  2.05000E+00 Dt=  5.00000E-02 [y] snes_conv_reason:    3
  newton =   1 [      59] linear =   124 [      6803] cuts =  0 [   0]
  --> max chng: dpmx=   2.3817E+00 dtmpmx=   1.4027E-01

== TH FLOW =====================================================================
 Step     54 Time=  2.10000E+00 Dt=  5.00000E-02 [y] snes_conv_reason:    3
  newton =   1 [      60] linear =   115 [      6918] cuts =  0 [   0]
  --> max chng: dpmx=   2.3735E+00 dtmpmx=   1.3749E-01

== TH FLOW =====================================================================
 Step     55 Time=  2.15000E+00 Dt=  5.00000E-02 [y] snes_conv_reason:    3
  newton =   1 [      61] linear =   123 [      7041] cuts =  0 [   0]
  --> max chng: dpmx=   2.3662E+00 dtmpmx=   1.3418E-01

== TH FLOW =====================================================================
 Step     56 Time=  2.20000E+00 Dt=  5.00000E-02 [y] snes_conv_reason:    3
  newton =   1 [      62] linear =   123 [      7164] cuts =  0 [   0]
  --> max chng: dpmx=   2.3635E+00 dtmpmx=   1.3275E-01

== TH FLOW =====================================================================
 Step     57 Time=  2.25000E+00 Dt=  5.00000E-02 [y] snes_conv_reason:    3
  newton =   1 [      63] linear =   122 [      7286] cuts =  0 [   0]
  --> max chng: dpmx=   2.3570E+00 dtmpmx=   1.3154E-01

== TH FLOW =====================================================================
 Step     58 Time=  2.30000E+00 Dt=  5.00000E-02 [y] snes_conv_reason:    3
  newton =   1 [      64] linear =   120 [      7406] cuts =  0 [   0]
  --> max chng: dpmx=   2.3500E+00 dtmpmx=   1.2978E-01

== TH FLOW =====================================================================
 Step     59 Time=  2.35000E+00 Dt=  5.00000E-02 [y] snes_conv_reason:    3
  newton =   1 [      65] linear =   122 [      7528] cuts =  0 [   0]
  --> max chng: dpmx=   2.3445E+00 dtmpmx=   1.2753E-01

== TH FLOW =====================================================================
 Step     60 Time=  2.40000E+00 Dt=  5.00000E-02 [y] snes_conv_reason:    3
  newton =   1 [      66] linear =   123 [      7651] cuts =  0 [   0]
  --> max chng: dpmx=   2.3412E+00 dtmpmx=   1.2485E-01

== TH FLOW =====================================================================
 Step     61 Time=  2.45000E+00 Dt=  5.00000E-02 [y] snes_conv_reason:    3
  newton =   1 [      67] linear =   123 [      7774] cuts =  0 [   0]
  --> max chng: dpmx=   2.3359E+00 dtmpmx=   1.2369E-01

== TH FLOW =====================================================================
 Step     62 Time=  2.50000E+00 Dt=  5.00000E-02 [y] snes_conv_reason:    3
  newton =   1 [      68] linear =   123 [      7897] cuts =  0 [   0]
  --> max chng: dpmx=   2.3284E+00 dtmpmx=   1.2271E-01

== TH FLOW =====================================================================
 Step     63 Time=  2.55000E+00 Dt=  5.00000E-02 [y] snes_conv_reason:    3
  newton =   1 [      69] linear =   123 [      8020] cuts =  0 [   0]
  --> max chng: dpmx=   2.3248E+00 dtmpmx=   1.2128E-01

== TH FLOW =====================================================================
 Step     64 Time=  2.60000E+00 Dt=  5.00000E-02 [y] snes_conv_reason:    3
  newton =   1 [      70] linear =   124 [      8144] cuts =  0 [   0]
  --> max chng: dpmx=   2.3215E+00 dtmpmx=   1.1945E-01

== TH FLOW =====================================================================
 Step     65 Time=  2.65000E+00 Dt=  5.00000E-02 [y] snes_conv_reason:    3
  newton =   1 [      71] linear =   124 [      8268] cuts =  0 [   0]
  --> max chng: dpmx=   2.3164E+00 dtmpmx=   1.1724E-01

== TH FLOW =====================================================================
 Step     66 Time=  2.70000E+00 Dt=  5.00000E-02 [y] snes_conv_reason:    3
  newton =   1 [      72] linear =   120 [      8388] cuts =  0 [   0]
  --> max chng: dpmx=   2.3087E+00 dtmpmx=   1.1618E-01

== TH FLOW =====================================================================
 Step     67 Time=  2.75000E+00 Dt=  5.00000E-02 [y] snes_conv_reason:    3
  newton =   1 [      73] linear =   123 [      8511] cuts =  0 [   0]
  --> max chng: dpmx=   2.3078E+00 dtmpmx=   1.1539E-01

== TH FLOW =====================================================================
 Step     68 Time=  2.80000E+00 Dt=  5.00000E-02 [y] snes_conv_reason:    3
  newton =   1 [      74] linear =   124 [      8635] cuts =  0 [   0]
  --> max chng: dpmx=   2.3032E+00 dtmpmx=   1.1422E-01

== TH FLOW =====================================================================
 Step     69 Time=  2.85000E+00 Dt=  5.00000E-02 [y] snes_conv_reason:    3
  newton =   1 [      75] linear =   125 [      8760] cuts =  0 [   0]
  --> max chng: dpmx=   2.2986E+00 dtmpmx=   1.1271E-01

== TH FLOW =====================================================================
 Step     70 Time=  2.90000E+00 Dt=  5.00000E-02 [y] snes_conv_reason:    3
  newton =   1 [      76] linear =   125 [      8885] cuts =  0 [   0]
  --> max chng: dpmx=   2.2925E+00 dtmpmx=   1.1089E-01

== TH FLOW =====================================================================
 Step     71 Time=  2.95000E+00 Dt=  5.00000E-02 [y] snes_conv_reason:    3
  newton =   1 [      77] linear =   118 [      9003] cuts =  0 [   0]
  --> max chng: dpmx=   2.2905E+00 dtmpmx=   1.0999E-01

== TH FLOW =====================================================================
 Step     72 Time=  3.00000E+00 Dt=  5.00000E-02 [y] snes_conv_reason:    3
  newton =   1 [      78] linear =   125 [      9128] cuts =  0 [   0]
  --> max chng: dpmx=   2.2867E+00 dtmpmx=   1.0920E-01

== TH FLOW =====================================================================
 Step     73 Time=  3.05000E+00 Dt=  5.00000E-02 [y] snes_conv_reason:    3
  newton =   1 [      79] linear =   125 [      9253] cuts =  0 [   0]
  --> max chng: dpmx=   2.2820E+00 dtmpmx=   1.0825E-01

== TH FLOW =====================================================================
 Step     74 Time=  3.10000E+00 Dt=  5.00000E-02 [y] snes_conv_reason:    3
  newton =   1 [      80] linear =   127 [      9380] cuts =  0 [   0]
  --> max chng: dpmx=   2.2764E+00 dtmpmx=   1.0700E-01

== TH FLOW =====================================================================
 Step     75 Time=  3.15000E+00 Dt=  5.00000E-02 [y] snes_conv_reason:    3
  newton =   1 [      81] linear =   125 [      9505] cuts =  0 [   0]
  --> max chng: dpmx=   2.2750E+00 dtmpmx=   1.0547E-01

== TH FLOW =====================================================================
 Step     76 Time=  3.20000E+00 Dt=  5.00000E-02 [y] snes_conv_reason:    3
  newton =   1 [      82] linear =   126 [      9631] cuts =  0 [   0]
  --> max chng: dpmx=   2.2709E+00 dtmpmx=   1.0472E-01

== TH FLOW =====================================================================
 Step     77 Time=  3.25000E+00 Dt=  5.00000E-02 [y] snes_conv_reason:    3
  newton =   1 [      83] linear =   126 [      9757] cuts =  0 [   0]
  --> max chng: dpmx=   2.2662E+00 dtmpmx=   1.0388E-01

== TH FLOW =====================================================================
 Step     78 Time=  3.30000E+00 Dt=  5.00000E-02 [y] snes_conv_reason:    3
  newton =   1 [      84] linear =   127 [      9884] cuts =  0 [   0]
  --> max chng: dpmx=   2.2620E+00 dtmpmx=   1.0310E-01

== TH FLOW =====================================================================
 Step     79 Time=  3.35000E+00 Dt=  5.00000E-02 [y] snes_conv_reason:    3
  newton =   1 [      85] linear =   124 [     10008] cuts =  0 [   0]
  --> max chng: dpmx=   2.2599E+00 dtmpmx=   1.0206E-01

== TH FLOW =====================================================================
 Step     80 Time=  3.40000E+00 Dt=  5.00000E-02 [y] snes_conv_reason:    3
  newton =   1 [      86] linear =   124 [     10132] cuts =  0 [   0]
  --> max chng: dpmx=   2.2563E+00 dtmpmx=   1.0077E-01

== TH FLOW =====================================================================
 Step     81 Time=  3.45000E+00 Dt=  5.00000E-02 [y] snes_conv_reason:    3
  newton =   1 [      87] linear =   126 [     10258] cuts =  0 [   0]
  --> max chng: dpmx=   2.2518E+00 dtmpmx=   1.0011E-01

== TH FLOW =====================================================================
 Step     82 Time=  3.50000E+00 Dt=  5.00000E-02 [y] snes_conv_reason:    3
  newton =   1 [      88] linear =   124 [     10382] cuts =  0 [   0]
  --> max chng: dpmx=   2.2471E+00 dtmpmx=   9.9387E-02

== TH FLOW =====================================================================
 Step     83 Time=  3.55000E+00 Dt=  5.00000E-02 [y] snes_conv_reason:    3
  newton =   1 [      89] linear =   127 [     10509] cuts =  0 [   0]
  --> max chng: dpmx=   2.2455E+00 dtmpmx=   9.8608E-02

== TH FLOW =====================================================================
 Step     84 Time=  3.60000E+00 Dt=  5.00000E-02 [y] snes_conv_reason:    3
  newton =   1 [      90] linear =   127 [     10636] cuts =  0 [   0]
  --> max chng: dpmx=   2.2422E+00 dtmpmx=   9.7738E-02

== TH FLOW =====================================================================
 Step     85 Time=  3.65000E+00 Dt=  5.00000E-02 [y] snes_conv_reason:    3
  newton =   1 [      91] linear =   127 [     10763] cuts =  0 [   0]
  --> max chng: dpmx=   2.2377E+00 dtmpmx=   9.6649E-02

== TH FLOW =====================================================================
 Step     86 Time=  3.70000E+00 Dt=  5.00000E-02 [y] snes_conv_reason:    3
  newton =   1 [      92] linear =   125 [     10888] cuts =  0 [   0]
  --> max chng: dpmx=   2.2339E+00 dtmpmx=   9.6051E-02

== TH FLOW =====================================================================
 Step     87 Time=  3.75000E+00 Dt=  5.00000E-02 [y] snes_conv_reason:    3
  newton =   1 [      93] linear =   127 [     11015] cuts =  0 [   0]
  --> max chng: dpmx=   2.2318E+00 dtmpmx=   9.5466E-02

== TH FLOW =====================================================================
 Step     88 Time=  3.80000E+00 Dt=  5.00000E-02 [y] snes_conv_reason:    3
  newton =   1 [      94] linear =   126 [     11141] cuts =  0 [   0]
  --> max chng: dpmx=   2.2285E+00 dtmpmx=   9.4670E-02

== TH FLOW =====================================================================
 Step     89 Time=  3.85000E+00 Dt=  5.00000E-02 [y] snes_conv_reason:    3
  newton =   1 [      95] linear =   125 [     11266] cuts =  0 [   0]
  --> max chng: dpmx=   2.2247E+00 dtmpmx=   9.3914E-02

== TH FLOW =====================================================================
 Step     90 Time=  3.90000E+00 Dt=  5.00000E-02 [y] snes_conv_reason:    3
  newton =   1 [      96] linear =   121 [     11387] cuts =  0 [   0]
  --> max chng: dpmx=   2.2205E+00 dtmpmx=   9.2988E-02

== TH FLOW =====================================================================
 Step     91 Time=  3.95000E+00 Dt=  5.00000E-02 [y] snes_conv_reason:    3
  newton =   1 [      97] linear =   122 [     11509] cuts =  0 [   0]
  --> max chng: dpmx=   2.2185E+00 dtmpmx=   9.2428E-02

== TH FLOW =====================================================================
 Step     92 Time=  4.00000E+00 Dt=  5.00000E-02 [y] snes_conv_reason:    3
  newton =   1 [      98] linear =   120 [     11629] cuts =  0 [   0]
  --> max chng: dpmx=   2.2154E+00 dtmpmx=   9.1959E-02

== TH FLOW =====================================================================
 Step     93 Time=  4.05000E+00 Dt=  5.00000E-02 [y] snes_conv_reason:    3
  newton =   1 [      99] linear =   122 [     11751] cuts =  0 [   0]
  --> max chng: dpmx=   2.2115E+00 dtmpmx=   9.1299E-02

== TH FLOW =====================================================================
 Step     94 Time=  4.10000E+00 Dt=  5.00000E-02 [y] snes_conv_reason:    3
  newton =   1 [     100] linear =   124 [     11875] cuts =  0 [   0]
  --> max chng: dpmx=   2.2075E+00 dtmpmx=   9.0496E-02

== TH FLOW =====================================================================
 Step     95 Time=  4.15000E+00 Dt=  5.00000E-02 [y] snes_conv_reason:    3
  newton =   1 [     101] linear =   125 [     12000] cuts =  0 [   0]
  --> max chng: dpmx=   2.2054E+00 dtmpmx=   8.9707E-02

== TH FLOW =====================================================================
 Step     96 Time=  4.20000E+00 Dt=  5.00000E-02 [y] snes_conv_reason:    3
  newton =   1 [     102] linear =   121 [     12121] cuts =  0 [   0]
  --> max chng: dpmx=   2.2027E+00 dtmpmx=   8.9168E-02

== TH FLOW =====================================================================
 Step     97 Time=  4.25000E+00 Dt=  5.00000E-02 [y] snes_conv_reason:    3
  newton =   1 [     103] linear =   119 [     12240] cuts =  0 [   0]
  --> max chng: dpmx=   2.1986E+00 dtmpmx=   8.8798E-02

== TH FLOW =====================================================================
 Step     98 Time=  4.30000E+00 Dt=  5.00000E-02 [y] snes_conv_reason:    3
  newton =   1 [     104] linear =   122 [     12362] cuts =  0 [   0]
  --> max chng: dpmx=   2.1952E+00 dtmpmx=   8.8252E-02

== TH FLOW =====================================================================
 Step     99 Time=  4.35000E+00 Dt=  5.00000E-02 [y] snes_conv_reason:    3
  newton =   1 [     105] linear =   124 [     12486] cuts =  0 [   0]
  --> max chng: dpmx=   2.1932E+00 dtmpmx=   8.7536E-02

== TH FLOW =====================================================================
 Step    100 Time=  4.40000E+00 Dt=  5.00000E-02 [y] snes_conv_reason:    3
  newton =   1 [     106] linear =   122 [     12608] cuts =  0 [   0]
  --> max chng: dpmx=   2.1900E+00 dtmpmx=   8.6742E-02

== TH FLOW =====================================================================
 Step    101 Time=  4.45000E+00 Dt=  5.00000E-02 [y] snes_conv_reason:    3
  newton =   1 [     107] linear =   122 [     12730] cuts =  0 [   0]
  --> max chng: dpmx=   2.1863E+00 dtmpmx=   8.6213E-02

== TH FLOW =====================================================================
 Step    102 Time=  4.50000E+00 Dt=  5.00000E-02 [y] snes_conv_reason:    3
  newton =   1 [     108] linear =   124 [     12854] cuts =  0 [   0]
  --> max chng: dpmx=   2.1828E+00 dtmpmx=   8.5923E-02

== TH FLOW =====================================================================
 Step    103 Time=  4.55000E+00 Dt=  5.00000E-02 [y] snes_conv_reason:    3
  newton =   1 [     109] linear =   124 [     12978] cuts =  0 [   0]
  --> max chng: dpmx=   2.1808E+00 dtmpmx=   8.5473E-02

== TH FLOW =====================================================================
 Step    104 Time=  4.60000E+00 Dt=  5.00000E-02 [y] snes_conv_reason:    3
  newton =   1 [     110] linear =   123 [     13101] cuts =  0 [   0]
  --> max chng: dpmx=   2.1779E+00 dtmpmx=   8.4869E-02

== TH FLOW =====================================================================
 Step    105 Time=  4.65000E+00 Dt=  5.00000E-02 [y] snes_conv_reason:    3
  newton =   1 [     111] linear =   124 [     13225] cuts =  0 [   0]
  --> max chng: dpmx=   2.1744E+00 dtmpmx=   8.4118E-02

== TH FLOW =====================================================================
 Step    106 Time=  4.70000E+00 Dt=  5.00000E-02 [y] snes_conv_reason:    3
  newton =   1 [     112] linear =   123 [     13348] cuts =  0 [   0]
  --> max chng: dpmx=   2.1703E+00 dtmpmx=   8.3517E-02

== TH FLOW =====================================================================
 Step    107 Time=  4.75000E+00 Dt=  5.00000E-02 [y] snes_conv_reason:    3
  newton =   1 [     113] linear =   123 [     13471] cuts =  0 [   0]
  --> max chng: dpmx=   2.1687E+00 dtmpmx=   8.3296E-02

== TH FLOW =====================================================================
 Step    108 Time=  4.80000E+00 Dt=  5.00000E-02 [y] snes_conv_reason:    3
  newton =   1 [     114] linear =   123 [     13594] cuts =  0 [   0]
  --> max chng: dpmx=   2.1661E+00 dtmpmx=   8.2927E-02

== TH FLOW =====================================================================
 Step    109 Time=  4.85000E+00 Dt=  5.00000E-02 [y] snes_conv_reason:    3
  newton =   1 [     115] linear =   124 [     13718] cuts =  0 [   0]
  --> max chng: dpmx=   2.1626E+00 dtmpmx=   8.2416E-02

== TH FLOW =====================================================================
 Step    110 Time=  4.90000E+00 Dt=  5.00000E-02 [y] snes_conv_reason:    3
  newton =   1 [     116] linear =   121 [     13839] cuts =  0 [   0]
  --> max chng: dpmx=   2.1589E+00 dtmpmx=   8.1768E-02

== TH FLOW =====================================================================
 Step    111 Time=  4.95000E+00 Dt=  5.00000E-02 [y] snes_conv_reason:    3
  newton =   1 [     117] linear =   123 [     13962] cuts =  0 [   0]
  --> max chng: dpmx=   2.1566E+00 dtmpmx=   8.1044E-02

== TH FLOW =====================================================================
 Step    112 Time=  5.00000E+00 Dt=  5.00000E-02 [y] snes_conv_reason:    3
  newton =   1 [     118] linear =   123 [     14085] cuts =  0 [   0]
  --> max chng: dpmx=   2.1541E+00 dtmpmx=   8.0882E-02

== TH FLOW =====================================================================
 Step    113 Time=  5.05000E+00 Dt=  5.00000E-02 [y] snes_conv_reason:    3
  newton =   1 [     119] linear =   123 [     14208] cuts =  0 [   0]
  --> max chng: dpmx=   2.1510E+00 dtmpmx=   8.0582E-02

== TH FLOW =====================================================================
 Step    114 Time=  5.10000E+00 Dt=  5.00000E-02 [y] snes_conv_reason:    3
  newton =   1 [     120] linear =   121 [     14329] cuts =  0 [   0]
  --> max chng: dpmx=   2.1474E+00 dtmpmx=   8.0151E-02

== TH FLOW =====================================================================
 Step    115 Time=  5.15000E+00 Dt=  5.00000E-02 [y] snes_conv_reason:    3
  newton =   1 [     121] linear =   115 [     14444] cuts =  0 [   0]
  --> max chng: dpmx=   2.1446E+00 dtmpmx=   7.9592E-02

== TH FLOW =====================================================================
 Step    116 Time=  5.20000E+00 Dt=  5.00000E-02 [y] snes_conv_reason:    3
  newton =   1 [     122] linear =   122 [     14566] cuts =  0 [   0]
  --> max chng: dpmx=   2.1427E+00 dtmpmx=   7.8911E-02

== TH FLOW =====================================================================
 Step    117 Time=  5.25000E+00 Dt=  5.00000E-02 [y] snes_conv_reason:    3
  newton =   1 [     123] linear =   119 [     14685] cuts =  0 [   0]
  --> max chng: dpmx=   2.1392E+00 dtmpmx=   7.8651E-02

== TH FLOW =====================================================================
 Step    118 Time=  5.30000E+00 Dt=  5.00000E-02 [y] snes_conv_reason:    3
  newton =   1 [     124] linear =   122 [     14807] cuts =  0 [   0]
  --> max chng: dpmx=   2.1364E+00 dtmpmx=   7.8412E-02

== TH FLOW =====================================================================
 Step    119 Time=  5.35000E+00 Dt=  5.00000E-02 [y] snes_conv_reason:    3
  newton =   1 [     125] linear =   120 [     14927] cuts =  0 [   0]
  --> max chng: dpmx=   2.1332E+00 dtmpmx=   7.8049E-02

== TH FLOW =====================================================================
 Step    120 Time=  5.40000E+00 Dt=  5.00000E-02 [y] snes_conv_reason:    3
  newton =   1 [     126] linear =   123 [     15050] cuts =  0 [   0]
  --> max chng: dpmx=   2.1311E+00 dtmpmx=   7.7567E-02

== TH FLOW =====================================================================
 Step    121 Time=  5.45000E+00 Dt=  5.00000E-02 [y] snes_conv_reason:    3
  newton =   1 [     127] linear =   122 [     15172] cuts =  0 [   0]
  --> max chng: dpmx=   2.1285E+00 dtmpmx=   7.6972E-02

== TH FLOW =====================================================================
 Step    122 Time=  5.50000E+00 Dt=  5.00000E-02 [y] snes_conv_reason:    3
  newton =   1 [     128] linear =   122 [     15294] cuts =  0 [   0]
  --> max chng: dpmx=   2.1244E+00 dtmpmx=   7.6583E-02

== TH FLOW =====================================================================
 Step    123 Time=  5.55000E+00 Dt=  5.00000E-02 [y] snes_conv_reason:    3
  newton =   1 [     129] linear =   120 [     15414] cuts =  0 [   0]
  --> max chng: dpmx=   2.1222E+00 dtmpmx=   7.6395E-02

== TH FLOW =====================================================================
 Step    124 Time=  5.60000E+00 Dt=  5.00000E-02 [y] snes_conv_reason:    3
  newton =   1 [     130] linear =   121 [     15535] cuts =  0 [   0]
  --> max chng: dpmx=   2.1193E+00 dtmpmx=   7.6092E-02

== TH FLOW =====================================================================
 Step    125 Time=  5.65000E+00 Dt=  5.00000E-02 [y] snes_conv_reason:    3
  newton =   1 [     131] linear =   122 [     15657] cuts =  0 [   0]
  --> max chng: dpmx=   2.1171E+00 dtmpmx=   7.5677E-02

== TH FLOW =====================================================================
 Step    126 Time=  5.70000E+00 Dt=  5.00000E-02 [y] snes_conv_reason:    3
  newton =   1 [     132] linear =   122 [     15779] cuts =  0 [   0]
  --> max chng: dpmx=   2.1135E+00 dtmpmx=   7.5156E-02

== TH FLOW =====================================================================
 Step    127 Time=  5.75000E+00 Dt=  5.00000E-02 [y] snes_conv_reason:    3
  newton =   1 [     133] linear =   122 [     15901] cuts =  0 [   0]
  --> max chng: dpmx=   2.1106E+00 dtmpmx=   7.4657E-02

== TH FLOW =====================================================================
 Step    128 Time=  5.80000E+00 Dt=  5.00000E-02 [y] snes_conv_reason:    3
  newton =   1 [     134] linear =   121 [     16022] cuts =  0 [   0]
  --> max chng: dpmx=   2.1087E+00 dtmpmx=   7.4514E-02

== TH FLOW =====================================================================
 Step    129 Time=  5.85000E+00 Dt=  5.00000E-02 [y] snes_conv_reason:    3
  newton =   1 [     135] linear =   123 [     16145] cuts =  0 [   0]
  --> max chng: dpmx=   2.1057E+00 dtmpmx=   7.4263E-02

== TH FLOW =====================================================================
 Step    130 Time=  5.90000E+00 Dt=  5.00000E-02 [y] snes_conv_reason:    3
  newton =   1 [     136] linear =   120 [     16265] cuts =  0 [   0]
  --> max chng: dpmx=   2.1024E+00 dtmpmx=   7.3907E-02

== TH FLOW =====================================================================
 Step    131 Time=  5.95000E+00 Dt=  5.00000E-02 [y] snes_conv_reason:    3
  newton =   1 [     137] linear =   121 [     16386] cuts =  0 [   0]
  --> max chng: dpmx=   2.0997E+00 dtmpmx=   7.3451E-02

== TH FLOW =====================================================================
 Step    132 Time=  6.00000E+00 Dt=  5.00000E-02 [y] snes_conv_reason:    3
  newton =   1 [     138] linear =   117 [     16503] cuts =  0 [   0]
  --> max chng: dpmx=   2.0972E+00 dtmpmx=   7.2897E-02

== TH FLOW =====================================================================
 Step    133 Time=  6.05000E+00 Dt=  5.00000E-02 [y] snes_conv_reason:    3
  newton =   1 [     139] linear =   123 [     16626] cuts =  0 [   0]
  --> max chng: dpmx=   2.0947E+00 dtmpmx=   7.2753E-02

== TH FLOW =====================================================================
 Step    134 Time=  6.10000E+00 Dt=  5.00000E-02 [y] snes_conv_reason:    3
  newton =   1 [     140] linear =   123 [     16749] cuts =  0 [   0]
  --> max chng: dpmx=   2.0920E+00 dtmpmx=   7.2548E-02

== TH FLOW =====================================================================
 Step    135 Time=  6.15000E+00 Dt=  5.00000E-02 [y] snes_conv_reason:    3
  newton =   1 [     141] linear =   120 [     16869] cuts =  0 [   0]
  --> max chng: dpmx=   2.0881E+00 dtmpmx=   7.2244E-02

== TH FLOW =====================================================================
 Step    136 Time=  6.20000E+00 Dt=  5.00000E-02 [y] snes_conv_reason:    3
  newton =   1 [     142] linear =   124 [     16993] cuts =  0 [   0]
  --> max chng: dpmx=   2.0864E+00 dtmpmx=   7.1845E-02

== TH FLOW =====================================================================
 Step    137 Time=  6.25000E+00 Dt=  5.00000E-02 [y] snes_conv_reason:    3
  newton =   1 [     143] linear =   121 [     17114] cuts =  0 [   0]
  --> max chng: dpmx=   2.0838E+00 dtmpmx=   7.1355E-02

== TH FLOW =====================================================================
 Step    138 Time=  6.30000E+00 Dt=  5.00000E-02 [y] snes_conv_reason:    3
  newton =   1 [     144] linear =   121 [     17235] cuts =  0 [   0]
  --> max chng: dpmx=   2.0812E+00 dtmpmx=   7.1100E-02

== TH FLOW =====================================================================
 Step    139 Time=  6.35000E+00 Dt=  5.00000E-02 [y] snes_conv_reason:    3
  newton =   1 [     145] linear =   122 [     17357] cuts =  0 [   0]
  --> max chng: dpmx=   2.0777E+00 dtmpmx=   7.0935E-02

== TH FLOW =====================================================================
 Step    140 Time=  6.40000E+00 Dt=  5.00000E-02 [y] snes_conv_reason:    3
  newton =   1 [     146] linear =   125 [     17482] cuts =  0 [   0]
  --> max chng: dpmx=   2.0747E+00 dtmpmx=   7.0678E-02

== TH FLOW =====================================================================
 Step    141 Time=  6.45000E+00 Dt=  5.00000E-02 [y] snes_conv_reason:    3
  newton =   1 [     147] linear =   121 [     17603] cuts =  0 [   0]
  --> max chng: dpmx=   2.0728E+00 dtmpmx=   7.0330E-02

== TH FLOW =====================================================================
 Step    142 Time=  6.50000E+00 Dt=  5.00000E-02 [y] snes_conv_reason:    3
  newton =   1 [     148] linear =   121 [     17724] cuts =  0 [   0]
  --> max chng: dpmx=   2.0708E+00 dtmpmx=   6.9895E-02

== TH FLOW =====================================================================
 Step    143 Time=  6.55000E+00 Dt=  5.00000E-02 [y] snes_conv_reason:    3
  newton =   1 [     149] linear =   122 [     17846] cuts =  0 [   0]
  --> max chng: dpmx=   2.0668E+00 dtmpmx=   6.9545E-02

== TH FLOW =====================================================================
 Step    144 Time=  6.60000E+00 Dt=  5.00000E-02 [y] snes_conv_reason:    3
  newton =   1 [     150] linear =   122 [     17968] cuts =  0 [   0]
  --> max chng: dpmx=   2.0644E+00 dtmpmx=   6.9415E-02

== TH FLOW =====================================================================
 Step    145 Time=  6.65000E+00 Dt=  5.00000E-02 [y] snes_conv_reason:    3
  newton =   1 [     151] linear =   122 [     18090] cuts =  0 [   0]
  --> max chng: dpmx=   2.0620E+00 dtmpmx=   6.9198E-02

== TH FLOW =====================================================================
 Step    146 Time=  6.70000E+00 Dt=  5.00000E-02 [y] snes_conv_reason:    3
  newton =   1 [     152] linear =   115 [     18205] cuts =  0 [   0]
  --> max chng: dpmx=   2.0594E+00 dtmpmx=   6.8896E-02

== TH FLOW =====================================================================
 Step    147 Time=  6.75000E+00 Dt=  5.00000E-02 [y] snes_conv_reason:    3
  newton =   1 [     153] linear =   123 [     18328] cuts =  0 [   0]
  --> max chng: dpmx=   2.0559E+00 dtmpmx=   6.8511E-02

== TH FLOW =====================================================================
 Step    148 Time=  6.80000E+00 Dt=  5.00000E-02 [y] snes_conv_reason:    3
  newton =   1 [     154] linear =   123 [     18451] cuts =  0 [   0]
  --> max chng: dpmx=   2.0533E+00 dtmpmx=   6.8076E-02

== TH FLOW =====================================================================
 Step    149 Time=  6.85000E+00 Dt=  5.00000E-02 [y] snes_conv_reason:    3
  newton =   1 [     155] linear =   121 [     18572] cuts =  0 [   0]
  --> max chng: dpmx=   2.0519E+00 dtmpmx=   6.7979E-02

== TH FLOW =====================================================================
 Step    150 Time=  6.90000E+00 Dt=  5.00000E-02 [y] snes_conv_reason:    3
  newton =   1 [     156] linear =   117 [     18689] cuts =  0 [   0]
  --> max chng: dpmx=   2.0482E+00 dtmpmx=   6.7798E-02

== TH FLOW =====================================================================
 Step    151 Time=  6.95000E+00 Dt=  5.00000E-02 [y] snes_conv_reason:    3
  newton =   1 [     157] linear =   122 [     18811] cuts =  0 [   0]
  --> max chng: dpmx=   2.0462E+00 dtmpmx=   6.7537E-02

== TH FLOW =====================================================================
 Step    152 Time=  7.00000E+00 Dt=  5.00000E-02 [y] snes_conv_reason:    3
  newton =   1 [     158] linear =   121 [     18932] cuts =  0 [   0]
  --> max chng: dpmx=   2.0424E+00 dtmpmx=   6.7196E-02

== TH FLOW =====================================================================
 Step    153 Time=  7.05000E+00 Dt=  5.00000E-02 [y] snes_conv_reason:    3
  newton =   1 [     159] linear =   120 [     19052] cuts =  0 [   0]
  --> max chng: dpmx=   2.0408E+00 dtmpmx=   6.6780E-02

== TH FLOW =====================================================================
 Step    154 Time=  7.10000E+00 Dt=  5.00000E-02 [y] snes_conv_reason:    3
  newton =   1 [     160] linear =   119 [     19171] cuts =  0 [   0]
  --> max chng: dpmx=   2.0388E+00 dtmpmx=   6.6618E-02

== TH FLOW =====================================================================
 Step    155 Time=  7.15000E+00 Dt=  5.00000E-02 [y] snes_conv_reason:    3
  newton =   1 [     161] linear =   120 [     19291] cuts =  0 [   0]
  --> max chng: dpmx=   2.0355E+00 dtmpmx=   6.6470E-02

== TH FLOW =====================================================================
 Step    156 Time=  7.20000E+00 Dt=  5.00000E-02 [y] snes_conv_reason:    3
  newton =   1 [     162] linear =   118 [     19409] cuts =  0 [   0]
  --> max chng: dpmx=   2.0323E+00 dtmpmx=   6.6245E-02

== TH FLOW =====================================================================
 Step    157 Time=  7.25000E+00 Dt=  5.00000E-02 [y] snes_conv_reason:    3
  newton =   1 [     163] linear =   115 [     19524] cuts =  0 [   0]
  --> max chng: dpmx=   2.0294E+00 dtmpmx=   6.5945E-02

== TH FLOW =====================================================================
 Step    158 Time=  7.30000E+00 Dt=  5.00000E-02 [y] snes_conv_reason:    3
  newton =   1 [     164] linear =   122 [     19646] cuts =  0 [   0]
  --> max chng: dpmx=   2.0282E+00 dtmpmx=   6.5572E-02

== TH FLOW =====================================================================
 Step    159 Time=  7.35000E+00 Dt=  5.00000E-02 [y] snes_conv_reason:    3
  newton =   1 [     165] linear =   123 [     19769] cuts =  0 [   0]
  --> max chng: dpmx=   2.0249E+00 dtmpmx=   6.5327E-02

== TH FLOW =====================================================================
 Step    160 Time=  7.40000E+00 Dt=  5.00000E-02 [y] snes_conv_reason:    3
  newton =   1 [     166] linear =   124 [     19893] cuts =  0 [   0]
  --> max chng: dpmx=   2.0216E+00 dtmpmx=   6.5208E-02

== TH FLOW =====================================================================
 Step    161 Time=  7.45000E+00 Dt=  5.00000E-02 [y] snes_conv_reason:    3
  newton =   1 [     167] linear =   124 [     20017] cuts =  0 [   0]
  --> max chng: dpmx=   2.0196E+00 dtmpmx=   6.5016E-02

== TH FLOW =====================================================================
 Step    162 Time=  7.50000E+00 Dt=  5.00000E-02 [y] snes_conv_reason:    3
  newton =   1 [     168] linear =   121 [     20138] cuts =  0 [   0]
  --> max chng: dpmx=   2.0173E+00 dtmpmx=   6.4752E-02

== TH FLOW =====================================================================
 Step    163 Time=  7.55000E+00 Dt=  5.00000E-02 [y] snes_conv_reason:    3
  newton =   1 [     169] linear =   120 [     20258] cuts =  0 [   0]
  --> max chng: dpmx=   2.0145E+00 dtmpmx=   6.4419E-02

== TH FLOW =====================================================================
 Step    164 Time=  7.60000E+00 Dt=  5.00000E-02 [y] snes_conv_reason:    3
  newton =   1 [     170] linear =   125 [     20383] cuts =  0 [   0]
  --> max chng: dpmx=   2.0116E+00 dtmpmx=   6.4100E-02

== TH FLOW =====================================================================
 Step    165 Time=  7.65000E+00 Dt=  5.00000E-02 [y] snes_conv_reason:    3
  newton =   1 [     171] linear =   122 [     20505] cuts =  0 [   0]
  --> max chng: dpmx=   2.0089E+00 dtmpmx=   6.4007E-02

== TH FLOW =====================================================================
 Step    166 Time=  7.70000E+00 Dt=  5.00000E-02 [y] snes_conv_reason:    3
  newton =   1 [     172] linear =   115 [     20620] cuts =  0 [   0]
  --> max chng: dpmx=   2.0064E+00 dtmpmx=   6.3844E-02

== TH FLOW =====================================================================
 Step    167 Time=  7.75000E+00 Dt=  5.00000E-02 [y] snes_conv_reason:    3
  newton =   1 [     173] linear =   118 [     20738] cuts =  0 [   0]
  --> max chng: dpmx=   2.0042E+00 dtmpmx=   6.3613E-02

== TH FLOW =====================================================================
 Step    168 Time=  7.80000E+00 Dt=  5.00000E-02 [y] snes_conv_reason:    3
  newton =   1 [     174] linear =   120 [     20858] cuts =  0 [   0]
  --> max chng: dpmx=   2.0020E+00 dtmpmx=   6.3316E-02

== TH FLOW =====================================================================
 Step    169 Time=  7.85000E+00 Dt=  5.00000E-02 [y] snes_conv_reason:    3
  newton =   1 [     175] linear =   122 [     20980] cuts =  0 [   0]
  --> max chng: dpmx=   1.9983E+00 dtmpmx=   6.2954E-02

== TH FLOW =====================================================================
 Step    170 Time=  7.90000E+00 Dt=  5.00000E-02 [y] snes_conv_reason:    3
  newton =   1 [     176] linear =   122 [     21102] cuts =  0 [   0]
  --> max chng: dpmx=   1.9960E+00 dtmpmx=   6.2861E-02

== TH FLOW =====================================================================
 Step    171 Time=  7.95000E+00 Dt=  5.00000E-02 [y] snes_conv_reason:    3
  newton =   1 [     177] linear =   121 [     21223] cuts =  0 [   0]
  --> max chng: dpmx=   1.9938E+00 dtmpmx=   6.2725E-02

== TH FLOW =====================================================================
 Step    172 Time=  8.00000E+00 Dt=  5.00000E-02 [y] snes_conv_reason:    3
  newton =   1 [     178] linear =   122 [     21345] cuts =  0 [   0]
  --> max chng: dpmx=   1.9913E+00 dtmpmx=   6.2524E-02

== TH FLOW =====================================================================
 Step    173 Time=  8.05000E+00 Dt=  5.00000E-02 [y] snes_conv_reason:    3
  newton =   1 [     179] linear =   121 [     21466] cuts =  0 [   0]
  --> max chng: dpmx=   1.9885E+00 dtmpmx=   6.2260E-02

== TH FLOW =====================================================================
 Step    174 Time=  8.10000E+00 Dt=  5.00000E-02 [y] snes_conv_reason:    3
  newton =   1 [     180] linear =   122 [     21588] cuts =  0 [   0]
  --> max chng: dpmx=   1.9852E+00 dtmpmx=   6.1933E-02

== TH FLOW =====================================================================
 Step    175 Time=  8.15000E+00 Dt=  5.00000E-02 [y] snes_conv_reason:    3
  newton =   1 [     181] linear =   122 [     21710] cuts =  0 [   0]
  --> max chng: dpmx=   1.9838E+00 dtmpmx=   6.1766E-02

== TH FLOW =====================================================================
 Step    176 Time=  8.20000E+00 Dt=  5.00000E-02 [y] snes_conv_reason:    3
  newton =   1 [     182] linear =   122 [     21832] cuts =  0 [   0]
  --> max chng: dpmx=   1.9814E+00 dtmpmx=   6.1655E-02

== TH FLOW =====================================================================
 Step    177 Time=  8.25000E+00 Dt=  5.00000E-02 [y] snes_conv_reason:    3
  newton =   1 [     183] linear =   122 [     21954] cuts =  0 [   0]
  --> max chng: dpmx=   1.9781E+00 dtmpmx=   6.1481E-02

== TH FLOW =====================================================================
 Step    178 Time=  8.30000E+00 Dt=  5.00000E-02 [y] snes_conv_reason:    3
  newton =   1 [     184] linear =   123 [     22077] cuts =  0 [   0]
  --> max chng: dpmx=   1.9756E+00 dtmpmx=   6.1246E-02

== TH FLOW =====================================================================
 Step    179 Time=  8.35000E+00 Dt=  5.00000E-02 [y] snes_conv_reason:    3
  newton =   1 [     185] linear =   122 [     22199] cuts =  0 [   0]
  --> max chng: dpmx=   1.9732E+00 dtmpmx=   6.0952E-02

== TH FLOW =====================================================================
 Step    180 Time=  8.40000E+00 Dt=  5.00000E-02 [y] snes_conv_reason:    3
  newton =   1 [     186] linear =   122 [     22321] cuts =  0 [   0]
  --> max chng: dpmx=   1.9706E+00 dtmpmx=   6.0719E-02

== TH FLOW =====================================================================
 Step    181 Time=  8.45000E+00 Dt=  5.00000E-02 [y] snes_conv_reason:    3
  newton =   1 [     187] linear =   120 [     22441] cuts =  0 [   0]
  --> max chng: dpmx=   1.9686E+00 dtmpmx=   6.0630E-02

== TH FLOW =====================================================================
 Step    182 Time=  8.50000E+00 Dt=  5.00000E-02 [y] snes_conv_reason:    3
  newton =   1 [     188] linear =   121 [     22562] cuts =  0 [   0]
  --> max chng: dpmx=   1.9651E+00 dtmpmx=   6.0481E-02

== TH FLOW =====================================================================
 Step    183 Time=  8.55000E+00 Dt=  5.00000E-02 [y] snes_conv_reason:    3
  newton =   1 [     189] linear =   117 [     22679] cuts =  0 [   0]
  --> max chng: dpmx=   1.9628E+00 dtmpmx=   6.0273E-02

== TH FLOW =====================================================================
 Step    184 Time=  8.60000E+00 Dt=  5.00000E-02 [y] snes_conv_reason:    3
  newton =   1 [     190] linear =   116 [     22795] cuts =  0 [   0]
  --> max chng: dpmx=   1.9608E+00 dtmpmx=   6.0009E-02

== TH FLOW =====================================================================
 Step    185 Time=  8.65000E+00 Dt=  5.00000E-02 [y] snes_conv_reason:    3
  newton =   1 [     191] linear =   120 [     22915] cuts =  0 [   0]
  --> max chng: dpmx=   1.9579E+00 dtmpmx=   5.9716E-02

== TH FLOW =====================================================================
 Step    186 Time=  8.70000E+00 Dt=  5.00000E-02 [y] snes_conv_reason:    3
  newton =   1 [     192] linear =   122 [     23037] cuts =  0 [   0]
  --> max chng: dpmx=   1.9556E+00 dtmpmx=   5.9647E-02

== TH FLOW =====================================================================
 Step    187 Time=  8.75000E+00 Dt=  5.00000E-02 [y] snes_conv_reason:    3
  newton =   1 [     193] linear =   120 [     23157] cuts =  0 [   0]
  --> max chng: dpmx=   1.9527E+00 dtmpmx=   5.9521E-02

== TH FLOW =====================================================================
 Step    188 Time=  8.80000E+00 Dt=  5.00000E-02 [y] snes_conv_reason:    3
  newton =   1 [     194] linear =   120 [     23277] cuts =  0 [   0]
  --> max chng: dpmx=   1.9503E+00 dtmpmx=   5.9338E-02

== TH FLOW =====================================================================
 Step    189 Time=  8.85000E+00 Dt=  5.00000E-02 [y] snes_conv_reason:    3
  newton =   1 [     195] linear =   122 [     23399] cuts =  0 [   0]
  --> max chng: dpmx=   1.9483E+00 dtmpmx=   5.9101E-02

== TH FLOW =====================================================================
 Step    190 Time=  8.90000E+00 Dt=  5.00000E-02 [y] snes_conv_reason:    3
  newton =   1 [     196] linear =   119 [     23518] cuts =  0 [   0]
  --> max chng: dpmx=   1.9453E+00 dtmpmx=   5.8810E-02

== TH FLOW =====================================================================
 Step    191 Time=  8.95000E+00 Dt=  5.00000E-02 [y] snes_conv_reason:    3
  newton =   1 [     197] linear =   121 [     23639] cuts =  0 [   0]
  --> max chng: dpmx=   1.9429E+00 dtmpmx=   5.8703E-02

== TH FLOW =====================================================================
 Step    192 Time=  9.00000E+00 Dt=  5.00000E-02 [y] snes_conv_reason:    3
  newton =   1 [     198] linear =   121 [     23760] cuts =  0 [   0]
  --> max chng: dpmx=   1.9400E+00 dtmpmx=   5.8598E-02

== TH FLOW =====================================================================
 Step    193 Time=  9.05000E+00 Dt=  5.00000E-02 [y] snes_conv_reason:    3
  newton =   1 [     199] linear =   122 [     23882] cuts =  0 [   0]
  --> max chng: dpmx=   1.9383E+00 dtmpmx=   5.8438E-02

== TH FLOW =====================================================================
 Step    194 Time=  9.10000E+00 Dt=  5.00000E-02 [y] snes_conv_reason:    3
  newton =   1 [     200] linear =   120 [     24002] cuts =  0 [   0]
  --> max chng: dpmx=   1.9356E+00 dtmpmx=   5.8225E-02

== TH FLOW =====================================================================
 Step    195 Time=  9.15000E+00 Dt=  5.00000E-02 [y] snes_conv_reason:    3
  newton =   1 [     201] linear =   120 [     24122] cuts =  0 [   0]
  --> max chng: dpmx=   1.9326E+00 dtmpmx=   5.7961E-02

== TH FLOW =====================================================================
 Step    196 Time=  9.20000E+00 Dt=  5.00000E-02 [y] snes_conv_reason:    3
  newton =   1 [     202] linear =   115 [     24237] cuts =  0 [   0]
  --> max chng: dpmx=   1.9299E+00 dtmpmx=   5.7796E-02

== TH FLOW =====================================================================
 Step    197 Time=  9.25000E+00 Dt=  5.00000E-02 [y] snes_conv_reason:    3
  newton =   1 [     203] linear =   118 [     24355] cuts =  0 [   0]
  --> max chng: dpmx=   1.9284E+00 dtmpmx=   5.7709E-02

== TH FLOW =====================================================================
 Step    198 Time=  9.30000E+00 Dt=  5.00000E-02 [y] snes_conv_reason:    3
  newton =   1 [     204] linear =   118 [     24473] cuts =  0 [   0]
  --> max chng: dpmx=   1.9256E+00 dtmpmx=   5.7571E-02

== TH FLOW =====================================================================
 Step    199 Time=  9.35000E+00 Dt=  5.00000E-02 [y] snes_conv_reason:    3
  newton =   1 [     205] linear =   118 [     24591] cuts =  0 [   0]
  --> max chng: dpmx=   1.9226E+00 dtmpmx=   5.7381E-02

== TH FLOW =====================================================================
 Step    200 Time=  9.40000E+00 Dt=  5.00000E-02 [y] snes_conv_reason:    3
  newton =   1 [     206] linear =   121 [     24712] cuts =  0 [   0]
  --> max chng: dpmx=   1.9201E+00 dtmpmx=   5.7142E-02

== TH FLOW =====================================================================
 Step    201 Time=  9.45000E+00 Dt=  5.00000E-02 [y] snes_conv_reason:    3
  newton =   1 [     207] linear =   117 [     24829] cuts =  0 [   0]
  --> max chng: dpmx=   1.9185E+00 dtmpmx=   5.6923E-02

== TH FLOW =====================================================================
 Step    202 Time=  9.50000E+00 Dt=  5.00000E-02 [y] snes_conv_reason:    3
  newton =   1 [     208] linear =   121 [     24950] cuts =  0 [   0]
  --> max chng: dpmx=   1.9157E+00 dtmpmx=   5.6854E-02

== TH FLOW =====================================================================
 Step    203 Time=  9.55000E+00 Dt=  5.00000E-02 [y] snes_conv_reason:    3
  newton =   1 [     209] linear =   121 [     25071] cuts =  0 [   0]
  --> max chng: dpmx=   1.9128E+00 dtmpmx=   5.6735E-02

== TH FLOW =====================================================================
 Step    204 Time=  9.60000E+00 Dt=  5.00000E-02 [y] snes_conv_reason:    3
  newton =   1 [     210] linear =   118 [     25189] cuts =  0 [   0]
  --> max chng: dpmx=   1.9105E+00 dtmpmx=   5.6566E-02

== TH FLOW =====================================================================
 Step    205 Time=  9.65000E+00 Dt=  5.00000E-02 [y] snes_conv_reason:    3
  newton =   1 [     211] linear =   120 [     25309] cuts =  0 [   0]
  --> max chng: dpmx=   1.9080E+00 dtmpmx=   5.6350E-02

== TH FLOW =====================================================================
 Step    206 Time=  9.70000E+00 Dt=  5.00000E-02 [y] snes_conv_reason:    3
  newton =   1 [     212] linear =   117 [     25426] cuts =  0 [   0]
  --> max chng: dpmx=   1.9056E+00 dtmpmx=   5.6087E-02

== TH FLOW =====================================================================
 Step    207 Time=  9.75000E+00 Dt=  5.00000E-02 [y] snes_conv_reason:    3
  newton =   1 [     213] linear =   121 [     25547] cuts =  0 [   0]
  --> max chng: dpmx=   1.9033E+00 dtmpmx=   5.6029E-02

== TH FLOW =====================================================================
 Step    208 Time=  9.80000E+00 Dt=  5.00000E-02 [y] snes_conv_reason:    3
  newton =   1 [     214] linear =   122 [     25669] cuts =  0 [   0]
  --> max chng: dpmx=   1.9008E+00 dtmpmx=   5.5927E-02

== TH FLOW =====================================================================
 Step    209 Time=  9.85000E+00 Dt=  5.00000E-02 [y] snes_conv_reason:    3
  newton =   1 [     215] linear =   125 [     25794] cuts =  0 [   0]
  --> max chng: dpmx=   1.8979E+00 dtmpmx=   5.5779E-02

== TH FLOW =====================================================================
 Step    210 Time=  9.90000E+00 Dt=  5.00000E-02 [y] snes_conv_reason:    3
  newton =   1 [     216] linear =   118 [     25912] cuts =  0 [   0]
  --> max chng: dpmx=   1.8958E+00 dtmpmx=   5.5584E-02

== TH FLOW =====================================================================
 Step    211 Time=  9.95000E+00 Dt=  5.00000E-02 [y] snes_conv_reason:    3
  newton =   1 [     217] linear =   122 [     26034] cuts =  0 [   0]
  --> max chng: dpmx=   1.8938E+00 dtmpmx=   5.5343E-02

== TH FLOW =====================================================================
 Step    212 Time=  1.00000E+01 Dt=  5.00000E-02 [y] snes_conv_reason:    3
  newton =   1 [     218] linear =   121 [     26155] cuts =  0 [   0]
  --> max chng: dpmx=   1.8908E+00 dtmpmx=   5.5233E-02

== TH FLOW =====================================================================
 Step    213 Time=  1.00500E+01 Dt=  5.00000E-02 [y] snes_conv_reason:    3
  newton =   1 [     219] linear =   120 [     26275] cuts =  0 [   0]
  --> max chng: dpmx=   1.8883E+00 dtmpmx=   5.5148E-02

== TH FLOW =====================================================================
 Step    214 Time=  1.01000E+01 Dt=  5.00000E-02 [y] snes_conv_reason:    3
  newton =   1 [     220] linear =   122 [     26397] cuts =  0 [   0]
  --> max chng: dpmx=   1.8858E+00 dtmpmx=   5.5017E-02

== TH FLOW =====================================================================
 Step    215 Time=  1.01500E+01 Dt=  5.00000E-02 [y] snes_conv_reason:    3
  newton =   1 [     221] linear =   122 [     26519] cuts =  0 [   0]
  --> max chng: dpmx=   1.8837E+00 dtmpmx=   5.4842E-02

== TH FLOW =====================================================================
 Step    216 Time=  1.02000E+01 Dt=  5.00000E-02 [y] snes_conv_reason:    3
  newton =   1 [     222] linear =   122 [     26641] cuts =  0 [   0]
  --> max chng: dpmx=   1.8813E+00 dtmpmx=   5.4623E-02

== TH FLOW =====================================================================
 Step    217 Time=  1.02500E+01 Dt=  5.00000E-02 [y] snes_conv_reason:    3
  newton =   1 [     223] linear =   121 [     26762] cuts =  0 [   0]
  --> max chng: dpmx=   1.8782E+00 dtmpmx=   5.4464E-02

== TH FLOW =====================================================================
 Step    218 Time=  1.03000E+01 Dt=  5.00000E-02 [y] snes_conv_reason:    3
  newton =   1 [     224] linear =   122 [     26884] cuts =  0 [   0]
  --> max chng: dpmx=   1.8763E+00 dtmpmx=   5.4394E-02

== TH FLOW =====================================================================
 Step    219 Time=  1.03500E+01 Dt=  5.00000E-02 [y] snes_conv_reason:    3
  newton =   1 [     225] linear =   121 [     27005] cuts =  0 [   0]
  --> max chng: dpmx=   1.8737E+00 dtmpmx=   5.4280E-02

== TH FLOW =====================================================================
 Step    220 Time=  1.04000E+01 Dt=  5.00000E-02 [y] snes_conv_reason:    3
  newton =   1 [     226] linear =   121 [     27126] cuts =  0 [   0]
  --> max chng: dpmx=   1.8716E+00 dtmpmx=   5.4123E-02

== TH FLOW =====================================================================
 Step    221 Time=  1.04500E+01 Dt=  5.00000E-02 [y] snes_conv_reason:    3
  newton =   1 [     227] linear =   119 [     27245] cuts =  0 [   0]
  --> max chng: dpmx=   1.8686E+00 dtmpmx=   5.3924E-02

== TH FLOW =====================================================================
 Step    222 Time=  1.05000E+01 Dt=  5.00000E-02 [y] snes_conv_reason:    3
  newton =   1 [     228] linear =   119 [     27364] cuts =  0 [   0]
  --> max chng: dpmx=   1.8664E+00 dtmpmx=   5.3720E-02

== TH FLOW =====================================================================
 Step    223 Time=  1.05500E+01 Dt=  5.00000E-02 [y] snes_conv_reason:    3
  newton =   1 [     229] linear =   123 [     27487] cuts =  0 [   0]
  --> max chng: dpmx=   1.8643E+00 dtmpmx=   5.3664E-02

== TH FLOW =====================================================================
 Step    224 Time=  1.06000E+01 Dt=  5.00000E-02 [y] snes_conv_reason:    3
  newton =   1 [     230] linear =   118 [     27605] cuts =  0 [   0]
  --> max chng: dpmx=   1.8621E+00 dtmpmx=   5.3566E-02

== TH FLOW =====================================================================
 Step    225 Time=  1.06500E+01 Dt=  5.00000E-02 [y] snes_conv_reason:    3
  newton =   1 [     231] linear =   118 [     27723] cuts =  0 [   0]
  --> max chng: dpmx=   1.8593E+00 dtmpmx=   5.3426E-02

== TH FLOW =====================================================================
 Step    226 Time=  1.07000E+01 Dt=  5.00000E-02 [y] snes_conv_reason:    3
  newton =   1 [     232] linear =   121 [     27844] cuts =  0 [   0]
  --> max chng: dpmx=   1.8562E+00 dtmpmx=   5.3245E-02

== TH FLOW =====================================================================
 Step    227 Time=  1.07500E+01 Dt=  5.00000E-02 [y] snes_conv_reason:    3
  newton =   1 [     233] linear =   118 [     27962] cuts =  0 [   0]
  --> max chng: dpmx=   1.8546E+00 dtmpmx=   5.3024E-02

== TH FLOW =====================================================================
 Step    228 Time=  1.08000E+01 Dt=  5.00000E-02 [y] snes_conv_reason:    3
  newton =   1 [     234] linear =   111 [     28073] cuts =  0 [   0]
  --> max chng: dpmx=   1.8520E+00 dtmpmx=   5.2958E-02

== TH FLOW =====================================================================
 Step    229 Time=  1.08500E+01 Dt=  5.00000E-02 [y] snes_conv_reason:    3
  newton =   1 [     235] linear =   123 [     28196] cuts =  0 [   0]
  --> max chng: dpmx=   1.8497E+00 dtmpmx=   5.2874E-02

== TH FLOW =====================================================================
 Step    230 Time=  1.09000E+01 Dt=  5.00000E-02 [y] snes_conv_reason:    3
  newton =   1 [     236] linear =   123 [     28319] cuts =  0 [   0]
  --> max chng: dpmx=   1.8471E+00 dtmpmx=   5.2750E-02

== TH FLOW =====================================================================
 Step    231 Time=  1.09500E+01 Dt=  5.00000E-02 [y] snes_conv_reason:    3
  newton =   1 [     237] linear =   117 [     28436] cuts =  0 [   0]
  --> max chng: dpmx=   1.8446E+00 dtmpmx=   5.2586E-02

== TH FLOW =====================================================================
 Step    232 Time=  1.10000E+01 Dt=  5.00000E-02 [y] snes_conv_reason:    3
  newton =   1 [     238] linear =   123 [     28559] cuts =  0 [   0]
  --> max chng: dpmx=   1.8422E+00 dtmpmx=   5.2383E-02

== TH FLOW =====================================================================
 Step    233 Time=  1.10500E+01 Dt=  5.00000E-02 [y] snes_conv_reason:    3
  newton =   1 [     239] linear =   124 [     28683] cuts =  0 [   0]
  --> max chng: dpmx=   1.8401E+00 dtmpmx=   5.2273E-02

== TH FLOW =====================================================================
 Step    234 Time=  1.11000E+01 Dt=  5.00000E-02 [y] snes_conv_reason:    3
  newton =   1 [     240] linear =   123 [     28806] cuts =  0 [   0]
  --> max chng: dpmx=   1.8375E+00 dtmpmx=   5.2203E-02

== TH FLOW =====================================================================
 Step    235 Time=  1.11500E+01 Dt=  5.00000E-02 [y] snes_conv_reason:    3
  newton =   1 [     241] linear =   117 [     28923] cuts =  0 [   0]
  --> max chng: dpmx=   1.8352E+00 dtmpmx=   5.2094E-02

== TH FLOW =====================================================================
 Step    236 Time=  1.12000E+01 Dt=  5.00000E-02 [y] snes_conv_reason:    3
  newton =   1 [     242] linear =   122 [     29045] cuts =  0 [   0]
  --> max chng: dpmx=   1.8323E+00 dtmpmx=   5.1946E-02

== TH FLOW =====================================================================
 Step    237 Time=  1.12500E+01 Dt=  5.00000E-02 [y] snes_conv_reason:    3
  newton =   1 [     243] linear =   112 [     29157] cuts =  0 [   0]
  --> max chng: dpmx=   1.8306E+00 dtmpmx=   5.1760E-02

== TH FLOW =====================================================================
 Step    238 Time=  1.13000E+01 Dt=  5.00000E-02 [y] snes_conv_reason:    3
  newton =   1 [     244] linear =   113 [     29270] cuts =  0 [   0]
  --> max chng: dpmx=   1.8279E+00 dtmpmx=   5.1610E-02

== TH FLOW =====================================================================
 Step    239 Time=  1.13500E+01 Dt=  5.00000E-02 [y] snes_conv_reason:    3
  newton =   1 [     245] linear =   121 [     29391] cuts =  0 [   0]
  --> max chng: dpmx=   1.8255E+00 dtmpmx=   5.1552E-02

== TH FLOW =====================================================================
 Step    240 Time=  1.14000E+01 Dt=  5.00000E-02 [y] snes_conv_reason:    3
  newton =   1 [     246] linear =   122 [     29513] cuts =  0 [   0]
  --> max chng: dpmx=   1.8228E+00 dtmpmx=   5.1456E-02

== TH FLOW =====================================================================
 Step    241 Time=  1.14500E+01 Dt=  5.00000E-02 [y] snes_conv_reason:    3
  newton =   1 [     247] linear =   123 [     29636] cuts =  0 [   0]
  --> max chng: dpmx=   1.8210E+00 dtmpmx=   5.1323E-02

== TH FLOW =====================================================================
 Step    242 Time=  1.15000E+01 Dt=  5.00000E-02 [y] snes_conv_reason:    3
  newton =   1 [     248] linear =   123 [     29759] cuts =  0 [   0]
  --> max chng: dpmx=   1.8186E+00 dtmpmx=   5.1153E-02

== TH FLOW =====================================================================
 Step    243 Time=  1.15500E+01 Dt=  5.00000E-02 [y] snes_conv_reason:    3
  newton =   1 [     249] linear =   123 [     29882] cuts =  0 [   0]
  --> max chng: dpmx=   1.8159E+00 dtmpmx=   5.0965E-02

== TH FLOW =====================================================================
 Step    244 Time=  1.16000E+01 Dt=  5.00000E-02 [y] snes_conv_reason:    3
  newton =   1 [     250] linear =   123 [     30005] cuts =  0 [   0]
  --> max chng: dpmx=   1.8135E+00 dtmpmx=   5.0919E-02

== TH FLOW =====================================================================
 Step    245 Time=  1.16500E+01 Dt=  5.00000E-02 [y] snes_conv_reason:    3
  newton =   1 [     251] linear =   124 [     30129] cuts =  0 [   0]
  --> max chng: dpmx=   1.8111E+00 dtmpmx=   5.0836E-02

== TH FLOW =====================================================================
 Step    246 Time=  1.17000E+01 Dt=  5.00000E-02 [y] snes_conv_reason:    3
  newton =   1 [     252] linear =   117 [     30246] cuts =  0 [   0]
  --> max chng: dpmx=   1.8087E+00 dtmpmx=   5.0717E-02

== TH FLOW =====================================================================
 Step    247 Time=  1.17500E+01 Dt=  5.00000E-02 [y] snes_conv_reason:    3
  newton =   1 [     253] linear =   116 [     30362] cuts =  0 [   0]
  --> max chng: dpmx=   1.8068E+00 dtmpmx=   5.0563E-02

== TH FLOW =====================================================================
 Step    248 Time=  1.18000E+01 Dt=  5.00000E-02 [y] snes_conv_reason:    3
  newton =   1 [     254] linear =   119 [     30481] cuts =  0 [   0]
  --> max chng: dpmx=   1.8037E+00 dtmpmx=   5.0373E-02

== TH FLOW =====================================================================
 Step    249 Time=  1.18500E+01 Dt=  5.00000E-02 [y] snes_conv_reason:    3
  newton =   1 [     255] linear =   118 [     30599] cuts =  0 [   0]
  --> max chng: dpmx=   1.8016E+00 dtmpmx=   5.0305E-02

== TH FLOW =====================================================================
 Step    250 Time=  1.19000E+01 Dt=  5.00000E-02 [y] snes_conv_reason:    3
  newton =   1 [     256] linear =   119 [     30718] cuts =  0 [   0]
  --> max chng: dpmx=   1.7994E+00 dtmpmx=   5.0234E-02

== TH FLOW =====================================================================
 Step    251 Time=  1.19500E+01 Dt=  5.00000E-02 [y] snes_conv_reason:    3
  newton =   1 [     257] linear =   120 [     30838] cuts =  0 [   0]
  --> max chng: dpmx=   1.7973E+00 dtmpmx=   5.0128E-02

== TH FLOW =====================================================================
 Step    252 Time=  1.20000E+01 Dt=  5.00000E-02 [y] snes_conv_reason:    3
  newton =   1 [     258] linear =   120 [     30958] cuts =  0 [   0]
  --> max chng: dpmx=   1.7946E+00 dtmpmx=   4.9987E-02

== TH FLOW =====================================================================
 Step    253 Time=  1.20500E+01 Dt=  5.00000E-02 [y] snes_conv_reason:    3
  newton =   1 [     259] linear =   118 [     31076] cuts =  0 [   0]
  --> max chng: dpmx=   1.7920E+00 dtmpmx=   4.9812E-02

== TH FLOW =====================================================================
 Step    254 Time=  1.21000E+01 Dt=  5.00000E-02 [y] snes_conv_reason:    3
  newton =   1 [     260] linear =   119 [     31195] cuts =  0 [   0]
  --> max chng: dpmx=   1.7898E+00 dtmpmx=   4.9707E-02

== TH FLOW =====================================================================
 Step    255 Time=  1.21500E+01 Dt=  5.00000E-02 [y] snes_conv_reason:    3
  newton =   1 [     261] linear =   120 [     31315] cuts =  0 [   0]
  --> max chng: dpmx=   1.7875E+00 dtmpmx=   4.9648E-02

== TH FLOW =====================================================================
 Step    256 Time=  1.22000E+01 Dt=  5.00000E-02 [y] snes_conv_reason:    3
  newton =   1 [     262] linear =   121 [     31436] cuts =  0 [   0]
  --> max chng: dpmx=   1.7852E+00 dtmpmx=   4.9554E-02

== TH FLOW =====================================================================
 Step    257 Time=  1.22500E+01 Dt=  5.00000E-02 [y] snes_conv_reason:    3
  newton =   1 [     263] linear =   120 [     31556] cuts =  0 [   0]
  --> max chng: dpmx=   1.7829E+00 dtmpmx=   4.9426E-02

[...]
 Step    493 Time=  2.40500E+01 Dt=  5.00000E-02 [y] snes_conv_reason:    3
  newton =   1 [     499] linear =   116 [     59609] cuts =  0 [   0]
  --> max chng: dpmx=   1.2456E+00 dtmpmx=   3.3351E-02

== TH FLOW =====================================================================
 Step    494 Time=  2.41000E+01 Dt=  5.00000E-02 [y] snes_conv_reason:    3
  newton =   1 [     500] linear =   117 [     59726] cuts =  0 [   0]
  --> max chng: dpmx=   1.2430E+00 dtmpmx=   3.3283E-02

== TH FLOW =====================================================================
 Step    495 Time=  2.41500E+01 Dt=  5.00000E-02 [y] snes_conv_reason:    3
  newton =   1 [     501] linear =   117 [     59843] cuts =  0 [   0]
  --> max chng: dpmx=   1.2407E+00 dtmpmx=   3.3266E-02

== TH FLOW =====================================================================
 Step    496 Time=  2.42000E+01 Dt=  5.00000E-02 [y] snes_conv_reason:    3
  newton =   1 [     502] linear =   119 [     59962] cuts =  0 [   0]
  --> max chng: dpmx=   1.2384E+00 dtmpmx=   3.3236E-02

== TH FLOW =====================================================================
 Step    497 Time=  2.42500E+01 Dt=  5.00000E-02 [y] snes_conv_reason:    3
  newton =   1 [     503] linear =   120 [     60082] cuts =  0 [   0]
  --> max chng: dpmx=   1.2365E+00 dtmpmx=   3.3195E-02

== TH FLOW =====================================================================
 Step    498 Time=  2.43000E+01 Dt=  5.00000E-02 [y] snes_conv_reason:    3
  newton =   1 [     504] linear =   119 [     60201] cuts =  0 [   0]
  --> max chng: dpmx=   1.2338E+00 dtmpmx=   3.3142E-02

== TH FLOW =====================================================================
 Step    499 Time=  2.43500E+01 Dt=  5.00000E-02 [y] snes_conv_reason:    3
  newton =   1 [     505] linear =   114 [     60315] cuts =  0 [   0]
  --> max chng: dpmx=   1.2319E+00 dtmpmx=   3.3078E-02

== TH FLOW =====================================================================
 Step    500 Time=  2.44000E+01 Dt=  5.00000E-02 [y] snes_conv_reason:    3
  newton =   1 [     506] linear =   118 [     60433] cuts =  0 [   0]
  --> max chng: dpmx=   1.2298E+00 dtmpmx=   3.3051E-02

== TH FLOW =====================================================================
 Step    501 Time=  2.44500E+01 Dt=  5.00000E-02 [y] snes_conv_reason:    3
  newton =   1 [     507] linear =   122 [     60555] cuts =  0 [   0]
  --> max chng: dpmx=   1.2274E+00 dtmpmx=   3.3024E-02

== TH FLOW =====================================================================
 Step    502 Time=  2.45000E+01 Dt=  5.00000E-02 [y] snes_conv_reason:    3
  newton =   1 [     508] linear =   122 [     60677] cuts =  0 [   0]
  --> max chng: dpmx=   1.2250E+00 dtmpmx=   3.2986E-02

== TH FLOW =====================================================================
 Step    503 Time=  2.45500E+01 Dt=  5.00000E-02 [y] snes_conv_reason:    3
  newton =   1 [     509] linear =   116 [     60793] cuts =  0 [   0]
  --> max chng: dpmx=   1.2225E+00 dtmpmx=   3.2936E-02

== TH FLOW =====================================================================
 Step    504 Time=  2.46000E+01 Dt=  5.00000E-02 [y] snes_conv_reason:    3
  newton =   1 [     510] linear =   117 [     60910] cuts =  0 [   0]
  --> max chng: dpmx=   1.2206E+00 dtmpmx=   3.2874E-02

== TH FLOW =====================================================================
 Step    505 Time=  2.46500E+01 Dt=  5.00000E-02 [y] snes_conv_reason:    3
  newton =   1 [     511] linear =   116 [     61026] cuts =  0 [   0]
  --> max chng: dpmx=   1.2186E+00 dtmpmx=   3.2839E-02

== TH FLOW =====================================================================
 Step    506 Time=  2.47000E+01 Dt=  5.00000E-02 [y] snes_conv_reason:    3
  newton =   1 [     512] linear =   117 [     61143] cuts =  0 [   0]
  --> max chng: dpmx=   1.2162E+00 dtmpmx=   3.2815E-02

== TH FLOW =====================================================================
 Step    507 Time=  2.47500E+01 Dt=  5.00000E-02 [y] snes_conv_reason:    3
  newton =   1 [     513] linear =   117 [     61260] cuts =  0 [   0]
  --> max chng: dpmx=   1.2137E+00 dtmpmx=   3.2779E-02

== TH FLOW =====================================================================
 Step    508 Time=  2.48000E+01 Dt=  5.00000E-02 [y] snes_conv_reason:    3
  newton =   1 [     514] linear =   117 [     61377] cuts =  0 [   0]
  --> max chng: dpmx=   1.2113E+00 dtmpmx=   3.2732E-02

== TH FLOW =====================================================================
 Step    509 Time=  2.48500E+01 Dt=  5.00000E-02 [y] snes_conv_reason:    3
  newton =   1 [     515] linear =   119 [     61496] cuts =  0 [   0]
  --> max chng: dpmx=   1.2091E+00 dtmpmx=   3.2674E-02

== TH FLOW =====================================================================
 Step    510 Time=  2.49000E+01 Dt=  5.00000E-02 [y] snes_conv_reason:    3
  newton =   1 [     516] linear =   117 [     61613] cuts =  0 [   0]
  --> max chng: dpmx=   1.2071E+00 dtmpmx=   3.2629E-02

== TH FLOW =====================================================================
 Step    511 Time=  2.49500E+01 Dt=  5.00000E-02 [y] snes_conv_reason:    3
  newton =   1 [     517] linear =   122 [     61735] cuts =  0 [   0]
  --> max chng: dpmx=   1.2051E+00 dtmpmx=   3.2608E-02

== TH FLOW =====================================================================
 Step    512 Time=  2.50000E+01 Dt=  5.00000E-02 [y] snes_conv_reason:    3
  newton =   1 [     518] linear =   119 [     61854] cuts =  0 [   0]
  --> max chng: dpmx=   1.2024E+00 dtmpmx=   3.2575E-02

== TH FLOW =====================================================================
 Step    513 Time=  2.50500E+01 Dt=  5.00000E-02 [y] snes_conv_reason:    3
  newton =   1 [     519] linear =   115 [     61969] cuts =  0 [   0]
  --> max chng: dpmx=   1.2002E+00 dtmpmx=   3.2530E-02

== TH FLOW =====================================================================
 Step    514 Time=  2.51000E+01 Dt=  5.00000E-02 [y] snes_conv_reason:    3
  newton =   1 [     520] linear =   116 [     62085] cuts =  0 [   0]
  --> max chng: dpmx=   1.1982E+00 dtmpmx=   3.2475E-02

== TH FLOW =====================================================================
 Step    515 Time=  2.51500E+01 Dt=  5.00000E-02 [y] snes_conv_reason:    3
  newton =   1 [     521] linear =   117 [     62202] cuts =  0 [   0]
  --> max chng: dpmx=   1.1959E+00 dtmpmx=   3.2422E-02

== TH FLOW =====================================================================
 Step    516 Time=  2.52000E+01 Dt=  5.00000E-02 [y] snes_conv_reason:    3
  newton =   1 [     522] linear =   116 [     62318] cuts =  0 [   0]
  --> max chng: dpmx=   1.1935E+00 dtmpmx=   3.2403E-02

== TH FLOW =====================================================================
 Step    517 Time=  2.52500E+01 Dt=  5.00000E-02 [y] snes_conv_reason:    3
  newton =   1 [     523] linear =   117 [     62435] cuts =  0 [   0]
  --> max chng: dpmx=   1.1910E+00 dtmpmx=   3.2373E-02

== TH FLOW =====================================================================
 Step    518 Time=  2.53000E+01 Dt=  5.00000E-02 [y] snes_conv_reason:    3
  newton =   1 [     524] linear =   117 [     62552] cuts =  0 [   0]
  --> max chng: dpmx=   1.1889E+00 dtmpmx=   3.2331E-02

== TH FLOW =====================================================================
 Step    519 Time=  2.53500E+01 Dt=  5.00000E-02 [y] snes_conv_reason:    3
  newton =   1 [     525] linear =   118 [     62670] cuts =  0 [   0]
  --> max chng: dpmx=   1.1869E+00 dtmpmx=   3.2279E-02

== TH FLOW =====================================================================
 Step    520 Time=  2.54000E+01 Dt=  5.00000E-02 [y] snes_conv_reason:    3
  newton =   1 [     526] linear =   117 [     62787] cuts =  0 [   0]
  --> max chng: dpmx=   1.1844E+00 dtmpmx=   3.2218E-02

== TH FLOW =====================================================================
 Step    521 Time=  2.54500E+01 Dt=  5.00000E-02 [y] snes_conv_reason:    3
  newton =   1 [     527] linear =   117 [     62904] cuts =  0 [   0]
  --> max chng: dpmx=   1.1824E+00 dtmpmx=   3.2201E-02

== TH FLOW =====================================================================
 Step    522 Time=  2.55000E+01 Dt=  5.00000E-02 [y] snes_conv_reason:    3
  newton =   1 [     528] linear =   118 [     63022] cuts =  0 [   0]
  --> max chng: dpmx=   1.1796E+00 dtmpmx=   3.2173E-02

== TH FLOW =====================================================================
 Step    523 Time=  2.55500E+01 Dt=  5.00000E-02 [y] snes_conv_reason:    3
  newton =   1 [     529] linear =   119 [     63141] cuts =  0 [   0]
  --> max chng: dpmx=   1.1778E+00 dtmpmx=   3.2135E-02

== TH FLOW =====================================================================
 Step    524 Time=  2.56000E+01 Dt=  5.00000E-02 [y] snes_conv_reason:    3
  newton =   1 [     530] linear =   118 [     63259] cuts =  0 [   0]
  --> max chng: dpmx=   1.1755E+00 dtmpmx=   3.2085E-02

== TH FLOW =====================================================================
 Step    525 Time=  2.56500E+01 Dt=  5.00000E-02 [y] snes_conv_reason:    3
  newton =   1 [     531] linear =   118 [     63377] cuts =  0 [   0]
  --> max chng: dpmx=   1.1733E+00 dtmpmx=   3.2025E-02

== TH FLOW =====================================================================
 Step    526 Time=  2.57000E+01 Dt=  5.00000E-02 [y] snes_conv_reason:    3
  newton =   1 [     532] linear =   118 [     63495] cuts =  0 [   0]
  --> max chng: dpmx=   1.1710E+00 dtmpmx=   3.2002E-02

== TH FLOW =====================================================================
 Step    527 Time=  2.57500E+01 Dt=  5.00000E-02 [y] snes_conv_reason:    3
  newton =   1 [     533] linear =   118 [     63613] cuts =  0 [   0]
  --> max chng: dpmx=   1.1684E+00 dtmpmx=   3.1976E-02

== TH FLOW =====================================================================
 Step    528 Time=  2.58000E+01 Dt=  5.00000E-02 [y] snes_conv_reason:    3
  newton =   1 [     534] linear =   116 [     63729] cuts =  0 [   0]
  --> max chng: dpmx=   1.1666E+00 dtmpmx=   3.1940E-02

== TH FLOW =====================================================================
 Step    529 Time=  2.58500E+01 Dt=  5.00000E-02 [y] snes_conv_reason:    3
  newton =   1 [     535] linear =   117 [     63846] cuts =  0 [   0]
  --> max chng: dpmx=   1.1641E+00 dtmpmx=   3.1893E-02

== TH FLOW =====================================================================
 Step    530 Time=  2.59000E+01 Dt=  5.00000E-02 [y] snes_conv_reason:    3
  newton =   1 [     536] linear =   117 [     63963] cuts =  0 [   0]
  --> max chng: dpmx=   1.1619E+00 dtmpmx=   3.1836E-02

== TH FLOW =====================================================================
 Step    531 Time=  2.59500E+01 Dt=  5.00000E-02 [y] snes_conv_reason:    3
  newton =   1 [     537] linear =   117 [     64080] cuts =  0 [   0]
  --> max chng: dpmx=   1.1595E+00 dtmpmx=   3.1805E-02

== TH FLOW =====================================================================
 Step    532 Time=  2.60000E+01 Dt=  5.00000E-02 [y] snes_conv_reason:    3
  newton =   1 [     538] linear =   119 [     64199] cuts =  0 [   0]
  --> max chng: dpmx=   1.1575E+00 dtmpmx=   3.1782E-02

== TH FLOW =====================================================================
 Step    533 Time=  2.60500E+01 Dt=  5.00000E-02 [y] snes_conv_reason:    3
  newton =   1 [     539] linear =   118 [     64317] cuts =  0 [   0]
  --> max chng: dpmx=   1.1552E+00 dtmpmx=   3.1748E-02

== TH FLOW =====================================================================
 Step    534 Time=  2.61000E+01 Dt=  5.00000E-02 [y] snes_conv_reason:    3
  newton =   1 [     540] linear =   118 [     64435] cuts =  0 [   0]
  --> max chng: dpmx=   1.1530E+00 dtmpmx=   3.1704E-02

== TH FLOW =====================================================================
 Step    535 Time=  2.61500E+01 Dt=  5.00000E-02 [y] snes_conv_reason:    3
  newton =   1 [     541] linear =   117 [     64552] cuts =  0 [   0]
  --> max chng: dpmx=   1.1504E+00 dtmpmx=   3.1649E-02

== TH FLOW =====================================================================
 Step    536 Time=  2.62000E+01 Dt=  5.00000E-02 [y] snes_conv_reason:    3
  newton =   1 [     542] linear =   117 [     64669] cuts =  0 [   0]
  --> max chng: dpmx=   1.1482E+00 dtmpmx=   3.1610E-02

== TH FLOW =====================================================================
 Step    537 Time=  2.62500E+01 Dt=  5.00000E-02 [y] snes_conv_reason:    3
  newton =   1 [     543] linear =   117 [     64786] cuts =  0 [   0]
  --> max chng: dpmx=   1.1462E+00 dtmpmx=   3.1589E-02

== TH FLOW =====================================================================
 Step    538 Time=  2.63000E+01 Dt=  5.00000E-02 [y] snes_conv_reason:    3
  newton =   1 [     544] linear =   117 [     64903] cuts =  0 [   0]
  --> max chng: dpmx=   1.1440E+00 dtmpmx=   3.1558E-02

== TH FLOW =====================================================================
 Step    539 Time=  2.63500E+01 Dt=  5.00000E-02 [y] snes_conv_reason:    3
  newton =   1 [     545] linear =   120 [     65023] cuts =  0 [   0]
  --> max chng: dpmx=   1.1417E+00 dtmpmx=   3.1516E-02

== TH FLOW =====================================================================
 Step    540 Time=  2.64000E+01 Dt=  5.00000E-02 [y] snes_conv_reason:    3
  newton =   1 [     546] linear =   115 [     65138] cuts =  0 [   0]
  --> max chng: dpmx=   1.1394E+00 dtmpmx=   3.1464E-02

== TH FLOW =====================================================================
 Step    541 Time=  2.64500E+01 Dt=  5.00000E-02 [y] snes_conv_reason:    3
  newton =   1 [     547] linear =   117 [     65255] cuts =  0 [   0]
  --> max chng: dpmx=   1.1367E+00 dtmpmx=   3.1418E-02

== TH FLOW =====================================================================
 Step    542 Time=  2.65000E+01 Dt=  5.00000E-02 [y] snes_conv_reason:    3
  newton =   1 [     548] linear =   123 [     65378] cuts =  0 [   0]
  --> max chng: dpmx=   1.1350E+00 dtmpmx=   3.1399E-02

== TH FLOW =====================================================================
 Step    543 Time=  2.65500E+01 Dt=  5.00000E-02 [y] snes_conv_reason:    3
  newton =   1 [     549] linear =   117 [     65495] cuts =  0 [   0]
  --> max chng: dpmx=   1.1327E+00 dtmpmx=   3.1370E-02

== TH FLOW =====================================================================
 Step    544 Time=  2.66000E+01 Dt=  5.00000E-02 [y] snes_conv_reason:    3
  newton =   1 [     550] linear =   121 [     65616] cuts =  0 [   0]
  --> max chng: dpmx=   1.1303E+00 dtmpmx=   3.1331E-02

== TH FLOW =====================================================================
 Step    545 Time=  2.66500E+01 Dt=  5.00000E-02 [y] snes_conv_reason:    3
  newton =   1 [     551] linear =   121 [     65737] cuts =  0 [   0]
  --> max chng: dpmx=   1.1278E+00 dtmpmx=   3.1281E-02

== TH FLOW =====================================================================
 Step    546 Time=  2.67000E+01 Dt=  5.00000E-02 [y] snes_conv_reason:    3
  newton =   1 [     552] linear =   120 [     65857] cuts =  0 [   0]
  --> max chng: dpmx=   1.1257E+00 dtmpmx=   3.1228E-02

== TH FLOW =====================================================================
 Step    547 Time=  2.67500E+01 Dt=  5.00000E-02 [y] snes_conv_reason:    3
  newton =   1 [     553] linear =   120 [     65977] cuts =  0 [   0]
  --> max chng: dpmx=   1.1236E+00 dtmpmx=   3.1211E-02

== TH FLOW =====================================================================
 Step    548 Time=  2.68000E+01 Dt=  5.00000E-02 [y] snes_conv_reason:    3
  newton =   1 [     554] linear =   120 [     66097] cuts =  0 [   0]
  --> max chng: dpmx=   1.1214E+00 dtmpmx=   3.1185E-02

== TH FLOW =====================================================================
 Step    549 Time=  2.68500E+01 Dt=  5.00000E-02 [y] snes_conv_reason:    3
  newton =   1 [     555] linear =   117 [     66214] cuts =  0 [   0]
  --> max chng: dpmx=   1.1188E+00 dtmpmx=   3.1148E-02

== TH FLOW =====================================================================
 Step    550 Time=  2.69000E+01 Dt=  5.00000E-02 [y] snes_conv_reason:    3
  newton =   1 [     556] linear =   117 [     66331] cuts =  0 [   0]
  --> max chng: dpmx=   1.1166E+00 dtmpmx=   3.1101E-02

== TH FLOW =====================================================================
 Step    551 Time=  2.69500E+01 Dt=  5.00000E-02 [y] snes_conv_reason:    3
  newton =   1 [     557] linear =   117 [     66448] cuts =  0 [   0]
  --> max chng: dpmx=   1.1147E+00 dtmpmx=   3.1044E-02

== TH FLOW =====================================================================
 Step    552 Time=  2.70000E+01 Dt=  5.00000E-02 [y] snes_conv_reason:    3
  newton =   1 [     558] linear =   122 [     66570] cuts =  0 [   0]
  --> max chng: dpmx=   1.1121E+00 dtmpmx=   3.1026E-02

== TH FLOW =====================================================================
 Step    553 Time=  2.70500E+01 Dt=  5.00000E-02 [y] snes_conv_reason:    3
  newton =   1 [     559] linear =   121 [     66691] cuts =  0 [   0]
  --> max chng: dpmx=   1.1102E+00 dtmpmx=   3.1001E-02

== TH FLOW =====================================================================
 Step    554 Time=  2.71000E+01 Dt=  5.00000E-02 [y] snes_conv_reason:    3
  newton =   1 [     560] linear =   118 [     66809] cuts =  0 [   0]
  --> max chng: dpmx=   1.1075E+00 dtmpmx=   3.0966E-02

== TH FLOW =====================================================================
 Step    555 Time=  2.71500E+01 Dt=  5.00000E-02 [y] snes_conv_reason:    3
  newton =   1 [     561] linear =   119 [     66928] cuts =  0 [   0]
  --> max chng: dpmx=   1.1054E+00 dtmpmx=   3.0922E-02

== TH FLOW =====================================================================
 Step    556 Time=  2.72000E+01 Dt=  5.00000E-02 [y] snes_conv_reason:    3
  newton =   1 [     562] linear =   112 [     67040] cuts =  0 [   0]
  --> max chng: dpmx=   1.1030E+00 dtmpmx=   3.0868E-02

== TH FLOW =====================================================================
 Step    557 Time=  2.72500E+01 Dt=  5.00000E-02 [y] snes_conv_reason:    3
  newton =   1 [     563] linear =   118 [     67158] cuts =  0 [   0]
  --> max chng: dpmx=   1.1011E+00 dtmpmx=   3.0842E-02

== TH FLOW =====================================================================
 Step    558 Time=  2.73000E+01 Dt=  5.00000E-02 [y] snes_conv_reason:    3
  newton =   1 [     564] linear =   107 [     67265] cuts =  0 [   0]
  --> max chng: dpmx=   1.0987E+00 dtmpmx=   3.0820E-02

== TH FLOW =====================================================================
 Step    559 Time=  2.73500E+01 Dt=  5.00000E-02 [y] snes_conv_reason:    3
  newton =   1 [     565] linear =   112 [     67377] cuts =  0 [   0]
  --> max chng: dpmx=   1.0962E+00 dtmpmx=   3.0787E-02

== TH FLOW =====================================================================
 Step    560 Time=  2.74000E+01 Dt=  5.00000E-02 [y] snes_conv_reason:    3
  newton =   1 [     566] linear =   106 [     67483] cuts =  0 [   0]
  --> max chng: dpmx=   1.0938E+00 dtmpmx=   3.0745E-02

== TH FLOW =====================================================================
 Step    561 Time=  2.74500E+01 Dt=  5.00000E-02 [y] snes_conv_reason:    3
  newton =   1 [     567] linear =   117 [     67600] cuts =  0 [   0]
  --> max chng: dpmx=   1.0920E+00 dtmpmx=   3.0693E-02

== TH FLOW =====================================================================
 Step    562 Time=  2.75000E+01 Dt=  5.00000E-02 [y] snes_conv_reason:    3
  newton =   1 [     568] linear =   112 [     67712] cuts =  0 [   0]
  --> max chng: dpmx=   1.0898E+00 dtmpmx=   3.0661E-02

 Wall Clock Time:  1.4754E+02 [sec]   2.4589E+00 [min]   4.0982E-02 [hr]
