
===================
  PFLOTRAN v3.0.1
===================

 Extent of Gridded Domain
  X: 2.5000000000000000 - 97.500000000000000
  Y: 2.5000000000000000 - 1277.5000000000000
  Z: 2.5000000000000000 - 2.5000000000000000


=+=+=+=+=+=+=+=+=+=+=+=+=+=+=+=+=+=+=+=+=+=+=+=+=+=+=+=+=+=+=+=+=+=+=+=+=+=+=+=+

  Initial Condition

--------------------------------------------------------------------------------
          Flow Condition:   initial
                  Region:   all
--------------------------------------------------------------------------------

  Flow Condition: initial
    Synchronize time with update: no
    Time units: yr
    Length units: m
      Datum:
        Dataset: Unnamed Ascii Dataset
          Type: dataset_ascii_type
          Transient: no
          Array Rank:  3

    Sub Condition: pressure
      Type: hydrostatic
      Gradient:
        Dataset: Unnamed Ascii Dataset
          Type: dataset_ascii_type
          Transient: no
          Array Rank:  3
      Data:
        Dataset: Unnamed Ascii Dataset
          Type: dataset_ascii_type
          Transient: no
          Array Rank:  1

    Sub Condition: temperature
      Type: dirichlet
      Gradient:
      Data:
        Dataset: Unnamed Ascii Dataset
          Type: dataset_ascii_type
          Transient: no
          Array Rank:  1

--------------------------------------------------------------------------------

=+=+=+=+=+=+=+=+=+=+=+=+=+=+=+=+=+=+=+=+=+=+=+=+=+=+=+=+=+=+=+=+=+=+=+=+=+=+=+=+

  Boundary Condition

--------------------------------------------------------------------------------
          Flow Condition:   initial
                  Region:   north
--------------------------------------------------------------------------------

  Flow Condition: initial
    Synchronize time with update: no
    Time units: yr
    Length units: m
      Datum:
        Dataset: Unnamed Ascii Dataset
          Type: dataset_ascii_type
          Transient: no
          Array Rank:  3

    Sub Condition: pressure
      Type: hydrostatic
      Gradient:
        Dataset: Unnamed Ascii Dataset
          Type: dataset_ascii_type
          Transient: no
          Array Rank:  3
      Data:
        Dataset: Unnamed Ascii Dataset
          Type: dataset_ascii_type
          Transient: no
          Array Rank:  1

    Sub Condition: temperature
      Type: dirichlet
      Gradient:
      Data:
        Dataset: Unnamed Ascii Dataset
          Type: dataset_ascii_type
          Transient: no
          Array Rank:  1

--------------------------------------------------------------------------------

=+=+=+=+=+=+=+=+=+=+=+=+=+=+=+=+=+=+=+=+=+=+=+=+=+=+=+=+=+=+=+=+=+=+=+=+=+=+=+=+

  Boundary Condition

--------------------------------------------------------------------------------
          Flow Condition:   initial
                  Region:   south
--------------------------------------------------------------------------------

  Flow Condition: initial
    Synchronize time with update: no
    Time units: yr
    Length units: m
      Datum:
        Dataset: Unnamed Ascii Dataset
          Type: dataset_ascii_type
          Transient: no
          Array Rank:  3

    Sub Condition: pressure
      Type: hydrostatic
      Gradient:
        Dataset: Unnamed Ascii Dataset
          Type: dataset_ascii_type
          Transient: no
          Array Rank:  3
      Data:
        Dataset: Unnamed Ascii Dataset
          Type: dataset_ascii_type
          Transient: no
          Array Rank:  1

    Sub Condition: temperature
      Type: dirichlet
      Gradient:
      Data:
        Dataset: Unnamed Ascii Dataset
          Type: dataset_ascii_type
          Transient: no
          Array Rank:  1

--------------------------------------------------------------------------------

=+=+=+=+=+=+=+=+=+=+=+=+=+=+=+=+=+=+=+=+=+=+=+=+=+=+=+=+=+=+=+=+=+=+=+=+=+=+=+=+

  Source Sink

--------------------------------------------------------------------------------
          Flow Condition:   injection
                  Region:   heatpump_inject0
--------------------------------------------------------------------------------

  Flow Condition: injection
    Synchronize time with update: no
    Time units: yr
    Length units: m
      Datum:

    Sub Condition: rate
      Type: scaled volumetric rate
      Gradient:
      Data:
        Dataset: Unnamed Ascii Dataset
          Type: dataset_ascii_type
          Is transient?: yes
          Number of times:      3
          Is cyclic?: no
          Buffer:
            Rank:  2
            Dims:    1   3
            Buffer Slice Size:   0
          Array Rank:  1

    Sub Condition: temperature
      Type: dirichlet
      Gradient:
      Data:
        Dataset: Unnamed Ascii Dataset
          Type: dataset_ascii_type
          Transient: no
          Array Rank:  1

--------------------------------------------------------------------------------

 Requested processors =    16

FLOW Time Stepper
                 acceleration: on
       acceleration threshold: 5
       number of ramp entries: 5
                ramp entry #1: 2.0000
                ramp entry #2: 2.0000
                ramp entry #3: 2.0000
                ramp entry #4: 2.0000
                ramp entry #5: 2.0000
                ramp entry #6: 1.8000
                ramp entry #7: 1.6000
                ramp entry #8: 1.4000
                ramp entry #9: 1.2000
               ramp entry #10: 1.0000
               ramp entry #11: 1.0000
               ramp entry #12: 1.0000
               ramp entry #13: 1.0000
      maximum number of steps: 999999
constant time steps threshold: 5
       maximum number of cuts: 16
             reduction factor: 5.000000E-01
        maximum growth factor: 2.000000E+00

FLOW Newton Solver
                         atol: 1.000000E-50
                         rtol: 1.000000E-03
                         stol: 1.000000E-08
                         dtol: 1.000000E+04
                      maxnorm: 1.000000E+20
                    inftolres: -9.990000E+02
                    inftolupd: 1.000000E+00
                 inftolrelupd: -9.990000E+02
                 inftolsclres: -9.990000E+02
                     max iter: 50
                     min iter: 1
                         maxf: 10000
                  matrix type: baij
         precond. matrix type: baij
               inexact newton: off
            print convergence: on
   print detailed convergence: off
          check infinity norm: on

FLOW Linear Solver
                       solver: bcgs
               preconditioner: bjacobi
                         atol: 1.000000E-50
                         rtol: 1.000000E-05
                         dtol: 1.000000E+04
            maximum iteration: 10000

== TH FLOW =====================================================================
 Step      1 Time=  1.00000E-05 Dt=  1.00000E-05 [y] snes_conv_reason:   11
  newton =   1 [       1] linear =    68 [        68] cuts =  0 [   0]
  --> max chng: dpmx=   3.7742E-02 dtmpmx=   6.9979E-09

== TH FLOW =====================================================================
 Step      2 Time=  3.00000E-05 Dt=  2.00000E-05 [y] snes_conv_reason:   11
  newton =   1 [       2] linear =    84 [       152] cuts =  0 [   0]
  --> max chng: dpmx=   5.7987E-03 dtmpmx=   1.3909E-08

== TH FLOW =====================================================================
 Step      3 Time=  7.00000E-05 Dt=  4.00000E-05 [y] snes_conv_reason:   11
  newton =   1 [       3] linear =   110 [       262] cuts =  0 [   0]
  --> max chng: dpmx=   4.5026E-04 dtmpmx=   2.7803E-08

== TH FLOW =====================================================================
 Step      4 Time=  1.50000E-04 Dt=  8.00000E-05 [y] snes_conv_reason:   11
  newton =   1 [       4] linear =   115 [       377] cuts =  0 [   0]
  --> max chng: dpmx=   1.7696E-05 dtmpmx=   5.5606E-08

== TH FLOW =====================================================================
 Step      5 Time=  3.10000E-04 Dt=  1.60000E-04 [y] snes_conv_reason:   11
  newton =   1 [       5] linear =   119 [       496] cuts =  0 [   0]
  --> max chng: dpmx=   2.6205E-07 dtmpmx=   1.1121E-07

== TH FLOW =====================================================================
 Step      6 Time=  6.30000E-04 Dt=  3.20000E-04 [y] snes_conv_reason:   11
  newton =   1 [       6] linear =   119 [       615] cuts =  0 [   0]
  --> max chng: dpmx=   5.4343E-07 dtmpmx=   2.2243E-07

== TH FLOW =====================================================================
 Step      7 Time=  1.27000E-03 Dt=  6.40000E-04 [y] snes_conv_reason:   11
  newton =   1 [       7] linear =   120 [       735] cuts =  0 [   0]
  --> max chng: dpmx=   1.1100E-06 dtmpmx=   4.4485E-07

== TH FLOW =====================================================================
 Step      8 Time=  2.55000E-03 Dt=  1.28000E-03 [y] snes_conv_reason:   11
  newton =   1 [       8] linear =   119 [       854] cuts =  0 [   0]
  --> max chng: dpmx=   2.3087E-06 dtmpmx=   8.8970E-07

== TH FLOW =====================================================================
 Step      9 Time=  5.11000E-03 Dt=  2.56000E-03 [y] snes_conv_reason:   11
  newton =   1 [       9] linear =   119 [       973] cuts =  0 [   0]
  --> max chng: dpmx=   4.9772E-06 dtmpmx=   1.7794E-06

== TH FLOW =====================================================================
 Step     10 Time=  1.02300E-02 Dt=  5.12000E-03 [y] snes_conv_reason:   11
  newton =   1 [      10] linear =   115 [      1088] cuts =  0 [   0]
  --> max chng: dpmx=   1.1391E-05 dtmpmx=   3.5588E-06

== TH FLOW =====================================================================
 Step     11 Time=  2.04700E-02 Dt=  1.02400E-02 [y] snes_conv_reason:   11
  newton =   1 [      11] linear =   121 [      1209] cuts =  0 [   0]
  --> max chng: dpmx=   2.8541E-05 dtmpmx=   7.1176E-06

== TH FLOW =====================================================================
 Step     12 Time=  4.09500E-02 Dt=  2.04800E-02 [y] snes_conv_reason:   11
  newton =   1 [      12] linear =   123 [      1332] cuts =  0 [   0]
  --> max chng: dpmx=   7.9765E-05 dtmpmx=   1.4235E-05

== TH FLOW =====================================================================
 Step     13 Time=  8.19100E-02 Dt=  4.09600E-02 [y] snes_conv_reason:   11
  newton =   1 [      13] linear =   121 [      1453] cuts =  0 [   0]
  --> max chng: dpmx=   2.4802E-04 dtmpmx=   2.8470E-05

== TH FLOW =====================================================================
 Step     14 Time=  1.00000E-01 Dt=  1.80900E-02 [y] snes_conv_reason:   11
  newton =   1 [      14] linear =   119 [      1572] cuts =  0 [   0]
  --> max chng: dpmx=   1.2680E-04 dtmpmx=   1.2574E-05

== TH FLOW =====================================================================
 Step     15 Time=  1.50000E-01 Dt=  5.00000E-02 [y] snes_conv_reason:   11
  newton =   1 [      15] linear =   121 [      1693] cuts =  0 [   0]
  --> max chng: dpmx=   4.7946E-04 dtmpmx=   3.4754E-05

== TH FLOW =====================================================================
 Step     16 Time=  2.00000E-01 Dt=  5.00000E-02 [y] snes_conv_reason:   11
  newton =   1 [      16] linear =   121 [      1814] cuts =  0 [   0]
  --> max chng: dpmx=   6.0556E-04 dtmpmx=   3.4754E-05

== TH FLOW =====================================================================
 Step     17 Time=  2.50000E-01 Dt=  5.00000E-02 [y] snes_conv_reason:   11
  newton =   3 [      19] linear =   351 [      2165] cuts =  0 [   0]
  --> max chng: dpmx=   1.8343E+02 dtmpmx=   2.6583E+00

== TH FLOW =====================================================================
 Step     18 Time=  3.00000E-01 Dt=  5.00000E-02 [y] snes_conv_reason:   11
  newton =   2 [      21] linear =   238 [      2403] cuts =  0 [   0]
  --> max chng: dpmx=   1.6202E+00 dtmpmx=   1.0485E+00

== TH FLOW =====================================================================
 Step     19 Time=  3.50000E-01 Dt=  5.00000E-02 [y] snes_conv_reason:   11
  newton =   2 [      23] linear =   237 [      2640] cuts =  0 [   0]
  --> max chng: dpmx=   1.4677E+00 dtmpmx=   7.4810E-01

== TH FLOW =====================================================================
 Step     20 Time=  4.00000E-01 Dt=  5.00000E-02 [y] snes_conv_reason:   11
  newton =   2 [      25] linear =   239 [      2879] cuts =  0 [   0]
  --> max chng: dpmx=   1.3834E+00 dtmpmx=   6.0611E-01

== TH FLOW =====================================================================
 Step     21 Time=  4.50000E-01 Dt=  5.00000E-02 [y] snes_conv_reason:   11
  newton =   2 [      27] linear =   235 [      3114] cuts =  0 [   0]
  --> max chng: dpmx=   1.3269E+00 dtmpmx=   5.1868E-01

== TH FLOW =====================================================================
 Step     22 Time=  5.00000E-01 Dt=  5.00000E-02 [y] snes_conv_reason:   11
  newton =   2 [      29] linear =   239 [      3353] cuts =  0 [   0]
  --> max chng: dpmx=   1.2848E+00 dtmpmx=   4.6156E-01

== TH FLOW =====================================================================
 Step     23 Time=  5.50000E-01 Dt=  5.00000E-02 [y] snes_conv_reason:   11
  newton =   2 [      31] linear =   236 [      3589] cuts =  0 [   0]
  --> max chng: dpmx=   1.2507E+00 dtmpmx=   4.1782E-01

== TH FLOW =====================================================================
 Step     24 Time=  6.00000E-01 Dt=  5.00000E-02 [y] snes_conv_reason:   11
  newton =   2 [      33] linear =   226 [      3815] cuts =  0 [   0]
  --> max chng: dpmx=   1.2219E+00 dtmpmx=   3.8271E-01

== TH FLOW =====================================================================
 Step     25 Time=  6.50000E-01 Dt=  5.00000E-02 [y] snes_conv_reason:    3
  newton =   1 [      34] linear =   122 [      3937] cuts =  0 [   0]
  --> max chng: dpmx=   1.1972E+00 dtmpmx=   3.5383E-01

== TH FLOW =====================================================================
 Step     26 Time=  7.00000E-01 Dt=  5.00000E-02 [y] snes_conv_reason:    3
  newton =   1 [      35] linear =   121 [      4058] cuts =  0 [   0]
  --> max chng: dpmx=   1.1746E+00 dtmpmx=   3.3028E-01

== TH FLOW =====================================================================
 Step     27 Time=  7.50000E-01 Dt=  5.00000E-02 [y] snes_conv_reason:    3
  newton =   1 [      36] linear =   117 [      4175] cuts =  0 [   0]
  --> max chng: dpmx=   1.1540E+00 dtmpmx=   3.1062E-01

== TH FLOW =====================================================================
 Step     28 Time=  8.00000E-01 Dt=  5.00000E-02 [y] snes_conv_reason:    3
  newton =   1 [      37] linear =   121 [      4296] cuts =  0 [   0]
  --> max chng: dpmx=   1.1344E+00 dtmpmx=   2.9318E-01

== TH FLOW =====================================================================
 Step     29 Time=  8.50000E-01 Dt=  5.00000E-02 [y] snes_conv_reason:    3
  newton =   1 [      38] linear =   116 [      4412] cuts =  0 [   0]
  --> max chng: dpmx=   1.1171E+00 dtmpmx=   2.7758E-01

== TH FLOW =====================================================================
 Step     30 Time=  9.00000E-01 Dt=  5.00000E-02 [y] snes_conv_reason:    3
  newton =   1 [      39] linear =   121 [      4533] cuts =  0 [   0]
  --> max chng: dpmx=   1.0999E+00 dtmpmx=   2.6377E-01

== TH FLOW =====================================================================
 Step     31 Time=  9.50000E-01 Dt=  5.00000E-02 [y] snes_conv_reason:    3
  newton =   1 [      40] linear =   122 [      4655] cuts =  0 [   0]
  --> max chng: dpmx=   1.0830E+00 dtmpmx=   2.5195E-01

== TH FLOW =====================================================================
 Step     32 Time=  1.00000E+00 Dt=  5.00000E-02 [y] snes_conv_reason:    3
  newton =   1 [      41] linear =   121 [      4776] cuts =  0 [   0]
  --> max chng: dpmx=   1.0670E+00 dtmpmx=   2.4103E-01

== TH FLOW =====================================================================
 Step     33 Time=  1.05000E+00 Dt=  5.00000E-02 [y] snes_conv_reason:    3
  newton =   1 [      42] linear =   114 [      4890] cuts =  0 [   0]
  --> max chng: dpmx=   1.0508E+00 dtmpmx=   2.3092E-01

== TH FLOW =====================================================================
 Step     34 Time=  1.10000E+00 Dt=  5.00000E-02 [y] snes_conv_reason:    3
  newton =   1 [      43] linear =   117 [      5007] cuts =  0 [   0]
  --> max chng: dpmx=   1.0355E+00 dtmpmx=   2.2159E-01

== TH FLOW =====================================================================
 Step     35 Time=  1.15000E+00 Dt=  5.00000E-02 [y] snes_conv_reason:    3
  newton =   1 [      44] linear =   121 [      5128] cuts =  0 [   0]
  --> max chng: dpmx=   1.0215E+00 dtmpmx=   2.1349E-01

== TH FLOW =====================================================================
 Step     36 Time=  1.20000E+00 Dt=  5.00000E-02 [y] snes_conv_reason:    3
  newton =   1 [      45] linear =   116 [      5244] cuts =  0 [   0]
  --> max chng: dpmx=   1.0060E+00 dtmpmx=   2.0585E-01

== TH FLOW =====================================================================
 Step     37 Time=  1.25000E+00 Dt=  5.00000E-02 [y] snes_conv_reason:   11
  newton =   1 [      46] linear =   118 [      5362] cuts =  0 [   0]
  --> max chng: dpmx=   9.9214E-01 dtmpmx=   1.9863E-01

== TH FLOW =====================================================================
 Step     38 Time=  1.30000E+00 Dt=  5.00000E-02 [y] snes_conv_reason:   11
  newton =   1 [      47] linear =   110 [      5472] cuts =  0 [   0]
  --> max chng: dpmx=   9.7739E-01 dtmpmx=   1.9181E-01

== TH FLOW =====================================================================
 Step     39 Time=  1.35000E+00 Dt=  5.00000E-02 [y] snes_conv_reason:   11
  newton =   1 [      48] linear =   113 [      5585] cuts =  0 [   0]
  --> max chng: dpmx=   9.6412E-01 dtmpmx=   1.8583E-01

== TH FLOW =====================================================================
 Step     40 Time=  1.40000E+00 Dt=  5.00000E-02 [y] snes_conv_reason:   11
  newton =   1 [      49] linear =   111 [      5696] cuts =  0 [   0]
  --> max chng: dpmx=   9.5063E-01 dtmpmx=   1.8012E-01

== TH FLOW =====================================================================
 Step     41 Time=  1.45000E+00 Dt=  5.00000E-02 [y] snes_conv_reason:   11
  newton =   1 [      50] linear =   119 [      5815] cuts =  0 [   0]
  --> max chng: dpmx=   9.3628E-01 dtmpmx=   1.7466E-01

== TH FLOW =====================================================================
 Step     42 Time=  1.50000E+00 Dt=  5.00000E-02 [y] snes_conv_reason:   11
  newton =   1 [      51] linear =   118 [      5933] cuts =  0 [   0]
  --> max chng: dpmx=   9.2330E-01 dtmpmx=   1.6943E-01

== TH FLOW =====================================================================
 Step     43 Time=  1.55000E+00 Dt=  5.00000E-02 [y] snes_conv_reason:   11
  newton =   1 [      52] linear =   114 [      6047] cuts =  0 [   0]
  --> max chng: dpmx=   9.0956E-01 dtmpmx=   1.6478E-01

== TH FLOW =====================================================================
 Step     44 Time=  1.60000E+00 Dt=  5.00000E-02 [y] snes_conv_reason:   11
  newton =   1 [      53] linear =   121 [      6168] cuts =  0 [   0]
  --> max chng: dpmx=   8.9637E-01 dtmpmx=   1.6032E-01

== TH FLOW =====================================================================
 Step     45 Time=  1.65000E+00 Dt=  5.00000E-02 [y] snes_conv_reason:   11
  newton =   1 [      54] linear =   118 [      6286] cuts =  0 [   0]
  --> max chng: dpmx=   8.8320E-01 dtmpmx=   1.5602E-01

== TH FLOW =====================================================================
 Step     46 Time=  1.70000E+00 Dt=  5.00000E-02 [y] snes_conv_reason:   11
  newton =   1 [      55] linear =   117 [      6403] cuts =  0 [   0]
  --> max chng: dpmx=   8.7078E-01 dtmpmx=   1.5187E-01

== TH FLOW =====================================================================
 Step     47 Time=  1.75000E+00 Dt=  5.00000E-02 [y] snes_conv_reason:   11
  newton =   1 [      56] linear =   113 [      6516] cuts =  0 [   0]
  --> max chng: dpmx=   8.5746E-01 dtmpmx=   1.4813E-01

== TH FLOW =====================================================================
 Step     48 Time=  1.80000E+00 Dt=  5.00000E-02 [y] snes_conv_reason:   11
  newton =   1 [      57] linear =   112 [      6628] cuts =  0 [   0]
  --> max chng: dpmx=   8.4437E-01 dtmpmx=   1.4454E-01

== TH FLOW =====================================================================
 Step     49 Time=  1.85000E+00 Dt=  5.00000E-02 [y] snes_conv_reason:   11
  newton =   1 [      58] linear =   114 [      6742] cuts =  0 [   0]
  --> max chng: dpmx=   8.3238E-01 dtmpmx=   1.4105E-01

== TH FLOW =====================================================================
 Step     50 Time=  1.90000E+00 Dt=  5.00000E-02 [y] snes_conv_reason:   11
  newton =   1 [      59] linear =   108 [      6850] cuts =  0 [   0]
  --> max chng: dpmx=   8.1932E-01 dtmpmx=   1.3768E-01

== TH FLOW =====================================================================
 Step     51 Time=  1.95000E+00 Dt=  5.00000E-02 [y] snes_conv_reason:   11
  newton =   1 [      60] linear =   117 [      6967] cuts =  0 [   0]
  --> max chng: dpmx=   8.0641E-01 dtmpmx=   1.3459E-01

== TH FLOW =====================================================================
 Step     52 Time=  2.00000E+00 Dt=  5.00000E-02 [y] snes_conv_reason:   11
  newton =   1 [      61] linear =   117 [      7084] cuts =  0 [   0]
  --> max chng: dpmx=   7.9420E-01 dtmpmx=   1.3163E-01

== TH FLOW =====================================================================
 Step     53 Time=  2.05000E+00 Dt=  5.00000E-02 [y] snes_conv_reason:   11
  newton =   1 [      62] linear =   115 [      7199] cuts =  0 [   0]
  --> max chng: dpmx=   7.8115E-01 dtmpmx=   1.2875E-01

== TH FLOW =====================================================================
 Step     54 Time=  2.10000E+00 Dt=  5.00000E-02 [y] snes_conv_reason:   11
  newton =   1 [      63] linear =   116 [      7315] cuts =  0 [   0]
  --> max chng: dpmx=   7.6951E-01 dtmpmx=   1.2594E-01

== TH FLOW =====================================================================
 Step     55 Time=  2.15000E+00 Dt=  5.00000E-02 [y] snes_conv_reason:   11
  newton =   1 [      64] linear =   116 [      7431] cuts =  0 [   0]
  --> max chng: dpmx=   7.5664E-01 dtmpmx=   1.2335E-01

== TH FLOW =====================================================================
 Step     56 Time=  2.20000E+00 Dt=  5.00000E-02 [y] snes_conv_reason:   11
  newton =   1 [      65] linear =   117 [      7548] cuts =  0 [   0]
  --> max chng: dpmx=   7.4437E-01 dtmpmx=   1.2087E-01

== TH FLOW =====================================================================
 Step     57 Time=  2.25000E+00 Dt=  5.00000E-02 [y] snes_conv_reason:   11
  newton =   1 [      66] linear =   117 [      7665] cuts =  0 [   0]
  --> max chng: dpmx=   7.3223E-01 dtmpmx=   1.1843E-01

== TH FLOW =====================================================================
 Step     58 Time=  2.30000E+00 Dt=  5.00000E-02 [y] snes_conv_reason:   11
  newton =   1 [      67] linear =   127 [      7792] cuts =  0 [   0]
  --> max chng: dpmx=   7.2004E-01 dtmpmx=   1.1606E-01

== TH FLOW =====================================================================
 Step     59 Time=  2.35000E+00 Dt=  5.00000E-02 [y] snes_conv_reason:   11
  newton =   1 [      68] linear =   118 [      7910] cuts =  0 [   0]
  --> max chng: dpmx=   7.0760E-01 dtmpmx=   1.1386E-01

== TH FLOW =====================================================================
 Step     60 Time=  2.40000E+00 Dt=  5.00000E-02 [y] snes_conv_reason:   11
  newton =   1 [      69] linear =   117 [      8027] cuts =  0 [   0]
  --> max chng: dpmx=   6.9626E-01 dtmpmx=   1.1174E-01

== TH FLOW =====================================================================
 Step     61 Time=  2.45000E+00 Dt=  5.00000E-02 [y] snes_conv_reason:   11
  newton =   1 [      70] linear =   119 [      8146] cuts =  0 [   0]
  --> max chng: dpmx=   6.8335E-01 dtmpmx=   1.0966E-01

== TH FLOW =====================================================================
 Step     62 Time=  2.50000E+00 Dt=  5.00000E-02 [y] snes_conv_reason:   11
  newton =   1 [      71] linear =   119 [      8265] cuts =  0 [   0]
  --> max chng: dpmx=   6.7153E-01 dtmpmx=   1.0763E-01

== TH FLOW =====================================================================
 Step     63 Time=  2.55000E+00 Dt=  5.00000E-02 [y] snes_conv_reason:   11
  newton =   1 [      72] linear =   117 [      8382] cuts =  0 [   0]
  --> max chng: dpmx=   6.6004E-01 dtmpmx=   1.0573E-01

== TH FLOW =====================================================================
 Step     64 Time=  2.60000E+00 Dt=  5.00000E-02 [y] snes_conv_reason:   11
  newton =   1 [      73] linear =   116 [      8498] cuts =  0 [   0]
  --> max chng: dpmx=   6.4728E-01 dtmpmx=   1.0391E-01

== TH FLOW =====================================================================
 Step     65 Time=  2.65000E+00 Dt=  5.00000E-02 [y] snes_conv_reason:   11
  newton =   1 [      74] linear =   114 [      8612] cuts =  0 [   0]
  --> max chng: dpmx=   6.3600E-01 dtmpmx=   1.0211E-01

== TH FLOW =====================================================================
 Step     66 Time=  2.70000E+00 Dt=  5.00000E-02 [y] snes_conv_reason:   11
  newton =   1 [      75] linear =   116 [      8728] cuts =  0 [   0]
  --> max chng: dpmx=   6.2372E-01 dtmpmx=   1.0035E-01

== TH FLOW =====================================================================
 Step     67 Time=  2.75000E+00 Dt=  5.00000E-02 [y] snes_conv_reason:   11
  newton =   1 [      76] linear =   117 [      8845] cuts =  0 [   0]
  --> max chng: dpmx=   6.1211E-01 dtmpmx=   9.8697E-02

== TH FLOW =====================================================================
 Step     68 Time=  2.80000E+00 Dt=  5.00000E-02 [y] snes_conv_reason:   11
  newton =   1 [      77] linear =   114 [      8959] cuts =  0 [   0]
  --> max chng: dpmx=   6.0005E-01 dtmpmx=   9.7106E-02

== TH FLOW =====================================================================
 Step     69 Time=  2.85000E+00 Dt=  5.00000E-02 [y] snes_conv_reason:   11
  newton =   1 [      78] linear =   112 [      9071] cuts =  0 [   0]
  --> max chng: dpmx=   5.8818E-01 dtmpmx=   9.5538E-02

== TH FLOW =====================================================================
 Step     70 Time=  2.90000E+00 Dt=  5.00000E-02 [y] snes_conv_reason:   11
  newton =   1 [      79] linear =   114 [      9185] cuts =  0 [   0]
  --> max chng: dpmx=   5.7649E-01 dtmpmx=   9.3994E-02

== TH FLOW =====================================================================
 Step     71 Time=  2.95000E+00 Dt=  5.00000E-02 [y] snes_conv_reason:   11
  newton =   1 [      80] linear =   114 [      9299] cuts =  0 [   0]
  --> max chng: dpmx=   5.6476E-01 dtmpmx=   9.2546E-02

== TH FLOW =====================================================================
 Step     72 Time=  3.00000E+00 Dt=  5.00000E-02 [y] snes_conv_reason:   11
  newton =   1 [      81] linear =   117 [      9416] cuts =  0 [   0]
  --> max chng: dpmx=   5.5307E-01 dtmpmx=   9.1148E-02

== TH FLOW =====================================================================
 Step     73 Time=  3.05000E+00 Dt=  5.00000E-02 [y] snes_conv_reason:   11
  newton =   1 [      82] linear =   118 [      9534] cuts =  0 [   0]
  --> max chng: dpmx=   5.4828E-01 dtmpmx=   8.9767E-02

== TH FLOW =====================================================================
 Step     74 Time=  3.10000E+00 Dt=  5.00000E-02 [y] snes_conv_reason:   11
  newton =   1 [      83] linear =   113 [      9647] cuts =  0 [   0]
  --> max chng: dpmx=   5.5652E-01 dtmpmx=   8.8404E-02

== TH FLOW =====================================================================
 Step     75 Time=  3.15000E+00 Dt=  5.00000E-02 [y] snes_conv_reason:   11
  newton =   1 [      84] linear =   116 [      9763] cuts =  0 [   0]
  --> max chng: dpmx=   5.6504E-01 dtmpmx=   8.7123E-02

== TH FLOW =====================================================================
 Step     76 Time=  3.20000E+00 Dt=  5.00000E-02 [y] snes_conv_reason:   11
  newton =   1 [      85] linear =   116 [      9879] cuts =  0 [   0]
  --> max chng: dpmx=   5.7340E-01 dtmpmx=   8.5885E-02

== TH FLOW =====================================================================
 Step     77 Time=  3.25000E+00 Dt=  5.00000E-02 [y] snes_conv_reason:   11
  newton =   1 [      86] linear =   116 [      9995] cuts =  0 [   0]
  --> max chng: dpmx=   5.8178E-01 dtmpmx=   8.4660E-02

== TH FLOW =====================================================================
 Step     78 Time=  3.30000E+00 Dt=  5.00000E-02 [y] snes_conv_reason:   11
  newton =   1 [      87] linear =   116 [     10111] cuts =  0 [   0]
  --> max chng: dpmx=   5.9026E-01 dtmpmx=   8.3449E-02

== TH FLOW =====================================================================
 Step     79 Time=  3.35000E+00 Dt=  5.00000E-02 [y] snes_conv_reason:   11
  newton =   1 [      88] linear =   117 [     10228] cuts =  0 [   0]
  --> max chng: dpmx=   5.9875E-01 dtmpmx=   8.2307E-02

== TH FLOW =====================================================================
 Step     80 Time=  3.40000E+00 Dt=  5.00000E-02 [y] snes_conv_reason:   11
  newton =   1 [      89] linear =   118 [     10346] cuts =  0 [   0]
  --> max chng: dpmx=   6.0721E-01 dtmpmx=   8.1203E-02

== TH FLOW =====================================================================
 Step     81 Time=  3.45000E+00 Dt=  5.00000E-02 [y] snes_conv_reason:   11
  newton =   1 [      90] linear =   117 [     10463] cuts =  0 [   0]
  --> max chng: dpmx=   6.1575E-01 dtmpmx=   8.0109E-02

== TH FLOW =====================================================================
 Step     82 Time=  3.50000E+00 Dt=  5.00000E-02 [y] snes_conv_reason:   11
  newton =   1 [      91] linear =   121 [     10584] cuts =  0 [   0]
  --> max chng: dpmx=   6.2418E-01 dtmpmx=   7.9025E-02

== TH FLOW =====================================================================
 Step     83 Time=  3.55000E+00 Dt=  5.00000E-02 [y] snes_conv_reason:   11
  newton =   1 [      92] linear =   120 [     10704] cuts =  0 [   0]
  --> max chng: dpmx=   6.3284E-01 dtmpmx=   7.8002E-02

== TH FLOW =====================================================================
 Step     84 Time=  3.60000E+00 Dt=  5.00000E-02 [y] snes_conv_reason:   11
  newton =   1 [      93] linear =   118 [     10822] cuts =  0 [   0]
  --> max chng: dpmx=   6.4139E-01 dtmpmx=   7.7011E-02

== TH FLOW =====================================================================
 Step     85 Time=  3.65000E+00 Dt=  5.00000E-02 [y] snes_conv_reason:   11
  newton =   1 [      94] linear =   110 [     10932] cuts =  0 [   0]
  --> max chng: dpmx=   6.5007E-01 dtmpmx=   7.6028E-02

== TH FLOW =====================================================================
 Step     86 Time=  3.70000E+00 Dt=  5.00000E-02 [y] snes_conv_reason:   11
  newton =   1 [      95] linear =   117 [     11049] cuts =  0 [   0]
  --> max chng: dpmx=   6.5867E-01 dtmpmx=   7.5053E-02

== TH FLOW =====================================================================
 Step     87 Time=  3.75000E+00 Dt=  5.00000E-02 [y] snes_conv_reason:   11
  newton =   1 [      96] linear =   113 [     11162] cuts =  0 [   0]
  --> max chng: dpmx=   6.6724E-01 dtmpmx=   7.4131E-02

== TH FLOW =====================================================================
 Step     88 Time=  3.80000E+00 Dt=  5.00000E-02 [y] snes_conv_reason:   11
  newton =   1 [      97] linear =   117 [     11279] cuts =  0 [   0]
  --> max chng: dpmx=   6.7604E-01 dtmpmx=   7.3237E-02

== TH FLOW =====================================================================
 Step     89 Time=  3.85000E+00 Dt=  5.00000E-02 [y] snes_conv_reason:   11
  newton =   1 [      98] linear =   114 [     11393] cuts =  0 [   0]
  --> max chng: dpmx=   6.8448E-01 dtmpmx=   7.2349E-02

== TH FLOW =====================================================================
 Step     90 Time=  3.90000E+00 Dt=  5.00000E-02 [y] snes_conv_reason:   11
  newton =   1 [      99] linear =   116 [     11509] cuts =  0 [   0]
  --> max chng: dpmx=   6.9350E-01 dtmpmx=   7.1467E-02

== TH FLOW =====================================================================
 Step     91 Time=  3.95000E+00 Dt=  5.00000E-02 [y] snes_conv_reason:   11
  newton =   1 [     100] linear =   114 [     11623] cuts =  0 [   0]
  --> max chng: dpmx=   7.0184E-01 dtmpmx=   7.0631E-02

== TH FLOW =====================================================================
 Step     92 Time=  4.00000E+00 Dt=  5.00000E-02 [y] snes_conv_reason:   11
  newton =   1 [     101] linear =   108 [     11731] cuts =  0 [   0]
  --> max chng: dpmx=   7.1074E-01 dtmpmx=   6.9821E-02

== TH FLOW =====================================================================
 Step     93 Time=  4.05000E+00 Dt=  5.00000E-02 [y] snes_conv_reason:   11
  newton =   1 [     102] linear =   106 [     11837] cuts =  0 [   0]
  --> max chng: dpmx=   7.1951E-01 dtmpmx=   6.9015E-02

== TH FLOW =====================================================================
 Step     94 Time=  4.10000E+00 Dt=  5.00000E-02 [y] snes_conv_reason:   11
  newton =   1 [     103] linear =   113 [     11950] cuts =  0 [   0]
  --> max chng: dpmx=   7.2842E-01 dtmpmx=   6.8214E-02

== TH FLOW =====================================================================
 Step     95 Time=  4.15000E+00 Dt=  5.00000E-02 [y] snes_conv_reason:   11
  newton =   1 [     104] linear =   112 [     12062] cuts =  0 [   0]
  --> max chng: dpmx=   7.3696E-01 dtmpmx=   6.7453E-02

== TH FLOW =====================================================================
 Step     96 Time=  4.20000E+00 Dt=  5.00000E-02 [y] snes_conv_reason:   11
  newton =   1 [     105] linear =   116 [     12178] cuts =  0 [   0]
  --> max chng: dpmx=   7.4591E-01 dtmpmx=   6.6715E-02

== TH FLOW =====================================================================
 Step     97 Time=  4.25000E+00 Dt=  5.00000E-02 [y] snes_conv_reason:   11
  newton =   1 [     106] linear =   112 [     12290] cuts =  0 [   0]
  --> max chng: dpmx=   7.5462E-01 dtmpmx=   6.5980E-02

== TH FLOW =====================================================================
 Step     98 Time=  4.30000E+00 Dt=  5.00000E-02 [y] snes_conv_reason:   11
  newton =   1 [     107] linear =   109 [     12399] cuts =  0 [   0]
  --> max chng: dpmx=   7.6337E-01 dtmpmx=   6.5249E-02

== TH FLOW =====================================================================
 Step     99 Time=  4.35000E+00 Dt=  5.00000E-02 [y] snes_conv_reason:   11
  newton =   1 [     108] linear =   109 [     12508] cuts =  0 [   0]
  --> max chng: dpmx=   7.7225E-01 dtmpmx=   6.4554E-02

== TH FLOW =====================================================================
 Step    100 Time=  4.40000E+00 Dt=  5.00000E-02 [y] snes_conv_reason:   11
  newton =   1 [     109] linear =   114 [     12622] cuts =  0 [   0]
  --> max chng: dpmx=   7.8097E-01 dtmpmx=   6.3879E-02

== TH FLOW =====================================================================
 Step    101 Time=  4.45000E+00 Dt=  5.00000E-02 [y] snes_conv_reason:   11
  newton =   1 [     110] linear =   112 [     12734] cuts =  0 [   0]
  --> max chng: dpmx=   7.8984E-01 dtmpmx=   6.3206E-02

== TH FLOW =====================================================================
 Step    102 Time=  4.50000E+00 Dt=  5.00000E-02 [y] snes_conv_reason:   11
  newton =   1 [     111] linear =   110 [     12844] cuts =  0 [   0]
  --> max chng: dpmx=   7.9896E-01 dtmpmx=   6.2537E-02

== TH FLOW =====================================================================
 Step    103 Time=  4.55000E+00 Dt=  5.00000E-02 [y] snes_conv_reason:   11
  newton =   1 [     112] linear =   108 [     12952] cuts =  0 [   0]
  --> max chng: dpmx=   8.0754E-01 dtmpmx=   6.1899E-02

== TH FLOW =====================================================================
 Step    104 Time=  4.60000E+00 Dt=  5.00000E-02 [y] snes_conv_reason:   11
  newton =   1 [     113] linear =   108 [     13060] cuts =  0 [   0]
  --> max chng: dpmx=   8.1636E-01 dtmpmx=   6.1279E-02

== TH FLOW =====================================================================
 Step    105 Time=  4.65000E+00 Dt=  5.00000E-02 [y] snes_conv_reason:   11
  newton =   1 [     114] linear =   110 [     13170] cuts =  0 [   0]
  --> max chng: dpmx=   8.2494E-01 dtmpmx=   6.0661E-02

== TH FLOW =====================================================================
 Step    106 Time=  4.70000E+00 Dt=  5.00000E-02 [y] snes_conv_reason:   11
  newton =   1 [     115] linear =   114 [     13284] cuts =  0 [   0]
  --> max chng: dpmx=   8.3427E-01 dtmpmx=   6.0045E-02

== TH FLOW =====================================================================
 Step    107 Time=  4.75000E+00 Dt=  5.00000E-02 [y] snes_conv_reason:   11
  newton =   1 [     116] linear =   113 [     13397] cuts =  0 [   0]
  --> max chng: dpmx=   8.4275E-01 dtmpmx=   5.9458E-02

== TH FLOW =====================================================================
 Step    108 Time=  4.80000E+00 Dt=  5.00000E-02 [y] snes_conv_reason:   11
  newton =   1 [     117] linear =   113 [     13510] cuts =  0 [   0]
  --> max chng: dpmx=   8.5168E-01 dtmpmx=   5.8887E-02

== TH FLOW =====================================================================
 Step    109 Time=  4.85000E+00 Dt=  5.00000E-02 [y] snes_conv_reason:   11
  newton =   1 [     118] linear =   114 [     13624] cuts =  0 [   0]
  --> max chng: dpmx=   8.6017E-01 dtmpmx=   5.8317E-02

== TH FLOW =====================================================================
 Step    110 Time=  4.90000E+00 Dt=  5.00000E-02 [y] snes_conv_reason:   11
  newton =   1 [     119] linear =   108 [     13732] cuts =  0 [   0]
  --> max chng: dpmx=   8.6890E-01 dtmpmx=   5.7749E-02

== TH FLOW =====================================================================
 Step    111 Time=  4.95000E+00 Dt=  5.00000E-02 [y] snes_conv_reason:   11
  newton =   1 [     120] linear =   113 [     13845] cuts =  0 [   0]
  --> max chng: dpmx=   8.7762E-01 dtmpmx=   5.7206E-02

== TH FLOW =====================================================================
 Step    112 Time=  5.00000E+00 Dt=  5.00000E-02 [y] snes_conv_reason:   11
  newton =   1 [     121] linear =   113 [     13958] cuts =  0 [   0]
  --> max chng: dpmx=   8.8582E-01 dtmpmx=   5.6678E-02

== TH FLOW =====================================================================
 Step    113 Time=  5.05000E+00 Dt=  5.00000E-02 [y] snes_conv_reason:   11
  newton =   1 [     122] linear =   108 [     14066] cuts =  0 [   0]
  --> max chng: dpmx=   8.9436E-01 dtmpmx=   5.6152E-02

== TH FLOW =====================================================================
 Step    114 Time=  5.10000E+00 Dt=  5.00000E-02 [y] snes_conv_reason:   11
  newton =   1 [     123] linear =   113 [     14179] cuts =  0 [   0]
  --> max chng: dpmx=   9.0241E-01 dtmpmx=   5.5626E-02

== TH FLOW =====================================================================
 Step    115 Time=  5.15000E+00 Dt=  5.00000E-02 [y] snes_conv_reason:   11
  newton =   1 [     124] linear =   110 [     14289] cuts =  0 [   0]
  --> max chng: dpmx=   9.1044E-01 dtmpmx=   5.5122E-02

== TH FLOW =====================================================================
 Step    116 Time=  5.20000E+00 Dt=  5.00000E-02 [y] snes_conv_reason:   11
  newton =   1 [     125] linear =   109 [     14398] cuts =  0 [   0]
  --> max chng: dpmx=   9.1827E-01 dtmpmx=   5.4633E-02

== TH FLOW =====================================================================
 Step    117 Time=  5.25000E+00 Dt=  5.00000E-02 [y] snes_conv_reason:   11
  newton =   1 [     126] linear =   112 [     14510] cuts =  0 [   0]
  --> max chng: dpmx=   9.2543E-01 dtmpmx=   5.4145E-02

== TH FLOW =====================================================================
 Step    118 Time=  5.30000E+00 Dt=  5.00000E-02 [y] snes_conv_reason:   11
  newton =   1 [     127] linear =   111 [     14621] cuts =  0 [   0]
  --> max chng: dpmx=   9.3270E-01 dtmpmx=   5.3656E-02

== TH FLOW =====================================================================
 Step    119 Time=  5.35000E+00 Dt=  5.00000E-02 [y] snes_conv_reason:   11
  newton =   1 [     128] linear =   111 [     14732] cuts =  0 [   0]
  --> max chng: dpmx=   9.3935E-01 dtmpmx=   5.3189E-02

== TH FLOW =====================================================================
 Step    120 Time=  5.40000E+00 Dt=  5.00000E-02 [y] snes_conv_reason:   11
  newton =   1 [     129] linear =   112 [     14844] cuts =  0 [   0]
  --> max chng: dpmx=   9.4564E-01 dtmpmx=   5.2734E-02

== TH FLOW =====================================================================
 Step    121 Time=  5.45000E+00 Dt=  5.00000E-02 [y] snes_conv_reason:   11
  newton =   1 [     130] linear =   102 [     14946] cuts =  0 [   0]
  --> max chng: dpmx=   9.5108E-01 dtmpmx=   5.2279E-02

== TH FLOW =====================================================================
 Step    122 Time=  5.50000E+00 Dt=  5.00000E-02 [y] snes_conv_reason:   11
  newton =   1 [     131] linear =   106 [     15052] cuts =  0 [   0]
  --> max chng: dpmx=   9.5631E-01 dtmpmx=   5.1825E-02

== TH FLOW =====================================================================
 Step    123 Time=  5.55000E+00 Dt=  5.00000E-02 [y] snes_conv_reason:   11
  newton =   1 [     132] linear =   114 [     15166] cuts =  0 [   0]
  --> max chng: dpmx=   9.6035E-01 dtmpmx=   5.1389E-02

== TH FLOW =====================================================================
 Step    124 Time=  5.60000E+00 Dt=  5.00000E-02 [y] snes_conv_reason:   11
  newton =   1 [     133] linear =   108 [     15274] cuts =  0 [   0]
  --> max chng: dpmx=   9.6385E-01 dtmpmx=   5.0965E-02

== TH FLOW =====================================================================
 Step    125 Time=  5.65000E+00 Dt=  5.00000E-02 [y] snes_conv_reason:   11
  newton =   1 [     134] linear =   109 [     15383] cuts =  0 [   0]
  --> max chng: dpmx=   9.6609E-01 dtmpmx=   5.0541E-02

== TH FLOW =====================================================================
 Step    126 Time=  5.70000E+00 Dt=  5.00000E-02 [y] snes_conv_reason:   11
  newton =   1 [     135] linear =   106 [     15489] cuts =  0 [   0]
  --> max chng: dpmx=   9.6735E-01 dtmpmx=   5.0117E-02

== TH FLOW =====================================================================
 Step    127 Time=  5.75000E+00 Dt=  5.00000E-02 [y] snes_conv_reason:   11
  newton =   1 [     136] linear =   113 [     15602] cuts =  0 [   0]
  --> max chng: dpmx=   9.6771E-01 dtmpmx=   4.9709E-02

== TH FLOW =====================================================================
 Step    128 Time=  5.80000E+00 Dt=  5.00000E-02 [y] snes_conv_reason:   11
  newton =   1 [     137] linear =   107 [     15709] cuts =  0 [   0]
  --> max chng: dpmx=   9.6648E-01 dtmpmx=   4.9313E-02

== TH FLOW =====================================================================
 Step    129 Time=  5.85000E+00 Dt=  5.00000E-02 [y] snes_conv_reason:   11
  newton =   1 [     138] linear =   114 [     15823] cuts =  0 [   0]
  --> max chng: dpmx=   9.6391E-01 dtmpmx=   4.8917E-02

== TH FLOW =====================================================================
 Step    130 Time=  5.90000E+00 Dt=  5.00000E-02 [y] snes_conv_reason:   11
  newton =   1 [     139] linear =   112 [     15935] cuts =  0 [   0]
  --> max chng: dpmx=   9.5956E-01 dtmpmx=   4.8520E-02

== TH FLOW =====================================================================
 Step    131 Time=  5.95000E+00 Dt=  5.00000E-02 [y] snes_conv_reason:   11
  newton =   1 [     140] linear =   103 [     16038] cuts =  0 [   0]
  --> max chng: dpmx=   9.5405E-01 dtmpmx=   4.8138E-02

== TH FLOW =====================================================================
 Step    132 Time=  6.00000E+00 Dt=  5.00000E-02 [y] snes_conv_reason:   11
  newton =   1 [     141] linear =   115 [     16153] cuts =  0 [   0]
  --> max chng: dpmx=   9.4613E-01 dtmpmx=   4.7767E-02

== TH FLOW =====================================================================
 Step    133 Time=  6.05000E+00 Dt=  5.00000E-02 [y] snes_conv_reason:   11
  newton =   1 [     142] linear =   116 [     16269] cuts =  0 [   0]
  --> max chng: dpmx=   9.3714E-01 dtmpmx=   4.7396E-02

== TH FLOW =====================================================================
 Step    134 Time=  6.10000E+00 Dt=  5.00000E-02 [y] snes_conv_reason:   11
  newton =   1 [     143] linear =   111 [     16380] cuts =  0 [   0]
  --> max chng: dpmx=   9.2557E-01 dtmpmx=   4.7024E-02

== TH FLOW =====================================================================
 Step    135 Time=  6.15000E+00 Dt=  5.00000E-02 [y] snes_conv_reason:   11
  newton =   1 [     144] linear =   115 [     16495] cuts =  0 [   0]
  --> max chng: dpmx=   9.1240E-01 dtmpmx=   4.6665E-02

== TH FLOW =====================================================================
 Step    136 Time=  6.20000E+00 Dt=  5.00000E-02 [y] snes_conv_reason:   11
  newton =   1 [     145] linear =    99 [     16594] cuts =  0 [   0]
  --> max chng: dpmx=   8.9735E-01 dtmpmx=   4.6317E-02

== TH FLOW =====================================================================
 Step    137 Time=  6.25000E+00 Dt=  5.00000E-02 [y] snes_conv_reason:   11
  newton =   1 [     146] linear =   109 [     16703] cuts =  0 [   0]
  --> max chng: dpmx=   8.7982E-01 dtmpmx=   4.5968E-02

== TH FLOW =====================================================================
 Step    138 Time=  6.30000E+00 Dt=  5.00000E-02 [y] snes_conv_reason:   11
  newton =   1 [     147] linear =   111 [     16814] cuts =  0 [   0]
  --> max chng: dpmx=   8.6062E-01 dtmpmx=   4.5618E-02

== TH FLOW =====================================================================
 Step    139 Time=  6.35000E+00 Dt=  5.00000E-02 [y] snes_conv_reason:   11
  newton =   1 [     148] linear =   118 [     16932] cuts =  0 [   0]
  --> max chng: dpmx=   8.3941E-01 dtmpmx=   4.5280E-02

== TH FLOW =====================================================================
 Step    140 Time=  6.40000E+00 Dt=  5.00000E-02 [y] snes_conv_reason:   11
  newton =   1 [     149] linear =   116 [     17048] cuts =  0 [   0]
  --> max chng: dpmx=   8.1625E-01 dtmpmx=   4.4953E-02

== TH FLOW =====================================================================
 Step    141 Time=  6.45000E+00 Dt=  5.00000E-02 [y] snes_conv_reason:   11
  newton =   1 [     150] linear =   112 [     17160] cuts =  0 [   0]
  --> max chng: dpmx=   7.9132E-01 dtmpmx=   4.4624E-02

== TH FLOW =====================================================================
 Step    142 Time=  6.50000E+00 Dt=  5.00000E-02 [y] snes_conv_reason:   11
  newton =   1 [     151] linear =   114 [     17274] cuts =  0 [   0]
  --> max chng: dpmx=   7.6473E-01 dtmpmx=   4.4295E-02

== TH FLOW =====================================================================
 Step    143 Time=  6.55000E+00 Dt=  5.00000E-02 [y] snes_conv_reason:   11
  newton =   1 [     152] linear =   115 [     17389] cuts =  0 [   0]
  --> max chng: dpmx=   7.3650E-01 dtmpmx=   4.3976E-02

== TH FLOW =====================================================================
 Step    144 Time=  6.60000E+00 Dt=  5.00000E-02 [y] snes_conv_reason:   11
  newton =   1 [     153] linear =   116 [     17505] cuts =  0 [   0]
  --> max chng: dpmx=   7.0696E-01 dtmpmx=   4.3667E-02

== TH FLOW =====================================================================
 Step    145 Time=  6.65000E+00 Dt=  5.00000E-02 [y] snes_conv_reason:   11
  newton =   1 [     154] linear =   114 [     17619] cuts =  0 [   0]
  --> max chng: dpmx=   6.7619E-01 dtmpmx=   4.3357E-02

== TH FLOW =====================================================================
 Step    146 Time=  6.70000E+00 Dt=  5.00000E-02 [y] snes_conv_reason:   11
  newton =   1 [     155] linear =   110 [     17729] cuts =  0 [   0]
  --> max chng: dpmx=   6.4473E-01 dtmpmx=   4.3046E-02

== TH FLOW =====================================================================
 Step    147 Time=  6.75000E+00 Dt=  5.00000E-02 [y] snes_conv_reason:   11
  newton =   1 [     156] linear =   114 [     17843] cuts =  0 [   0]
  --> max chng: dpmx=   6.1215E-01 dtmpmx=   4.2745E-02

== TH FLOW =====================================================================
 Step    148 Time=  6.80000E+00 Dt=  5.00000E-02 [y] snes_conv_reason:   11
  newton =   1 [     157] linear =   115 [     17958] cuts =  0 [   0]
  --> max chng: dpmx=   5.7921E-01 dtmpmx=   4.2453E-02

== TH FLOW =====================================================================
 Step    149 Time=  6.85000E+00 Dt=  5.00000E-02 [y] snes_conv_reason:   11
  newton =   1 [     158] linear =   115 [     18073] cuts =  0 [   0]
  --> max chng: dpmx=   5.4613E-01 dtmpmx=   4.2126E-02

== TH FLOW =====================================================================
 Step    150 Time=  6.90000E+00 Dt=  5.00000E-02 [y] snes_conv_reason:   11
  newton =   1 [     159] linear =   111 [     18184] cuts =  0 [   0]
  --> max chng: dpmx=   5.1270E-01 dtmpmx=   4.1592E-02

== TH FLOW =====================================================================
 Step    151 Time=  6.95000E+00 Dt=  5.00000E-02 [y] snes_conv_reason:   11
  newton =   1 [     160] linear =   115 [     18299] cuts =  0 [   0]
  --> max chng: dpmx=   4.7960E-01 dtmpmx=   4.0830E-02

== TH FLOW =====================================================================
 Step    152 Time=  7.00000E+00 Dt=  5.00000E-02 [y] snes_conv_reason:   11
  newton =   1 [     161] linear =   116 [     18415] cuts =  0 [   0]
  --> max chng: dpmx=   4.4701E-01 dtmpmx=   3.9855E-02

== TH FLOW =====================================================================
 Step    153 Time=  7.05000E+00 Dt=  5.00000E-02 [y] snes_conv_reason:   11
  newton =   1 [     162] linear =   118 [     18533] cuts =  0 [   0]
  --> max chng: dpmx=   4.1480E-01 dtmpmx=   3.8706E-02

== TH FLOW =====================================================================
 Step    154 Time=  7.10000E+00 Dt=  5.00000E-02 [y] snes_conv_reason:   11
  newton =   1 [     163] linear =   114 [     18647] cuts =  0 [   0]
  --> max chng: dpmx=   3.8354E-01 dtmpmx=   3.7485E-02

== TH FLOW =====================================================================
 Step    155 Time=  7.15000E+00 Dt=  5.00000E-02 [y] snes_conv_reason:   11
  newton =   1 [     164] linear =   118 [     18765] cuts =  0 [   0]
  --> max chng: dpmx=   3.5320E-01 dtmpmx=   3.6106E-02

== TH FLOW =====================================================================
 Step    156 Time=  7.20000E+00 Dt=  5.00000E-02 [y] snes_conv_reason:   11
  newton =   1 [     165] linear =   120 [     18885] cuts =  0 [   0]
  --> max chng: dpmx=   3.2399E-01 dtmpmx=   3.4590E-02

== TH FLOW =====================================================================
 Step    157 Time=  7.25000E+00 Dt=  5.00000E-02 [y] snes_conv_reason:   11
  newton =   1 [     166] linear =   120 [     19005] cuts =  0 [   0]
  --> max chng: dpmx=   2.9606E-01 dtmpmx=   3.2963E-02

== TH FLOW =====================================================================
 Step    158 Time=  7.30000E+00 Dt=  5.00000E-02 [y] snes_conv_reason:   11
  newton =   1 [     167] linear =   120 [     19125] cuts =  0 [   0]
  --> max chng: dpmx=   2.6930E-01 dtmpmx=   3.1250E-02

== TH FLOW =====================================================================
 Step    159 Time=  7.35000E+00 Dt=  5.00000E-02 [y] snes_conv_reason:   11
  newton =   1 [     168] linear =   117 [     19242] cuts =  0 [   0]
  --> max chng: dpmx=   2.4410E-01 dtmpmx=   2.9474E-02

== TH FLOW =====================================================================
 Step    160 Time=  7.40000E+00 Dt=  5.00000E-02 [y] snes_conv_reason:   11
  newton =   1 [     169] linear =   121 [     19363] cuts =  0 [   0]
  --> max chng: dpmx=   2.2043E-01 dtmpmx=   2.7659E-02

== TH FLOW =====================================================================
 Step    161 Time=  7.45000E+00 Dt=  5.00000E-02 [y] snes_conv_reason:   11
  newton =   1 [     170] linear =   119 [     19482] cuts =  0 [   0]
  --> max chng: dpmx=   1.9823E-01 dtmpmx=   2.5827E-02

== TH FLOW =====================================================================
 Step    162 Time=  7.50000E+00 Dt=  5.00000E-02 [y] snes_conv_reason:   11
  newton =   1 [     171] linear =   121 [     19603] cuts =  0 [   0]
  --> max chng: dpmx=   1.7752E-01 dtmpmx=   2.4000E-02

== TH FLOW =====================================================================
 Step    163 Time=  7.55000E+00 Dt=  5.00000E-02 [y] snes_conv_reason:   11
  newton =   1 [     172] linear =   120 [     19723] cuts =  0 [   0]
  --> max chng: dpmx=   1.5835E-01 dtmpmx=   2.2195E-02

== TH FLOW =====================================================================
 Step    164 Time=  7.60000E+00 Dt=  5.00000E-02 [y] snes_conv_reason:   11
  newton =   1 [     173] linear =   121 [     19844] cuts =  0 [   0]
  --> max chng: dpmx=   1.4072E-01 dtmpmx=   2.0430E-02

== TH FLOW =====================================================================
 Step    165 Time=  7.65000E+00 Dt=  5.00000E-02 [y] snes_conv_reason:   11
  newton =   1 [     174] linear =   121 [     19965] cuts =  0 [   0]
  --> max chng: dpmx=   1.2459E-01 dtmpmx=   1.8717E-02

== TH FLOW =====================================================================
 Step    166 Time=  7.70000E+00 Dt=  5.00000E-02 [y] snes_conv_reason:   11
  newton =   1 [     175] linear =   122 [     20087] cuts =  0 [   0]
  --> max chng: dpmx=   1.0985E-01 dtmpmx=   1.7071E-02

== TH FLOW =====================================================================
 Step    167 Time=  7.75000E+00 Dt=  5.00000E-02 [y] snes_conv_reason:   11
  newton =   1 [     176] linear =   121 [     20208] cuts =  0 [   0]
  --> max chng: dpmx=   9.6467E-02 dtmpmx=   1.5499E-02

== TH FLOW =====================================================================
 Step    168 Time=  7.80000E+00 Dt=  5.00000E-02 [y] snes_conv_reason:   11
  newton =   1 [     177] linear =   122 [     20330] cuts =  0 [   0]
  --> max chng: dpmx=   8.4397E-02 dtmpmx=   1.4009E-02

== TH FLOW =====================================================================
 Step    169 Time=  7.85000E+00 Dt=  5.00000E-02 [y] snes_conv_reason:   11
  newton =   1 [     178] linear =   123 [     20453] cuts =  0 [   0]
  --> max chng: dpmx=   7.3545E-02 dtmpmx=   1.2608E-02

== TH FLOW =====================================================================
 Step    170 Time=  7.90000E+00 Dt=  5.00000E-02 [y] snes_conv_reason:   11
  newton =   1 [     179] linear =   123 [     20576] cuts =  0 [   0]
  --> max chng: dpmx=   6.3829E-02 dtmpmx=   1.1298E-02

== TH FLOW =====================================================================
 Step    171 Time=  7.95000E+00 Dt=  5.00000E-02 [y] snes_conv_reason:   11
  newton =   1 [     180] linear =   121 [     20697] cuts =  0 [   0]
  --> max chng: dpmx=   5.5188E-02 dtmpmx=   1.0081E-02

== TH FLOW =====================================================================
 Step    172 Time=  8.00000E+00 Dt=  5.00000E-02 [y] snes_conv_reason:   11
  newton =   1 [     181] linear =   122 [     20819] cuts =  0 [   0]
  --> max chng: dpmx=   4.7521E-02 dtmpmx=   8.9570E-03

== TH FLOW =====================================================================
 Step    173 Time=  8.05000E+00 Dt=  5.00000E-02 [y] snes_conv_reason:   11
  newton =   1 [     182] linear =   124 [     20943] cuts =  0 [   0]
  --> max chng: dpmx=   4.0762E-02 dtmpmx=   7.9254E-03

== TH FLOW =====================================================================
 Step    174 Time=  8.10000E+00 Dt=  5.00000E-02 [y] snes_conv_reason:   11
  newton =   1 [     183] linear =   125 [     21068] cuts =  0 [   0]
  --> max chng: dpmx=   3.4824E-02 dtmpmx=   6.9836E-03

== TH FLOW =====================================================================
 Step    175 Time=  8.15000E+00 Dt=  5.00000E-02 [y] snes_conv_reason:   11
  newton =   1 [     184] linear =   125 [     21193] cuts =  0 [   0]
  --> max chng: dpmx=   2.9626E-02 dtmpmx=   6.1284E-03

== TH FLOW =====================================================================
 Step    176 Time=  8.20000E+00 Dt=  5.00000E-02 [y] snes_conv_reason:   11
  newton =   1 [     185] linear =   125 [     21318] cuts =  0 [   0]
  --> max chng: dpmx=   2.5109E-02 dtmpmx=   5.3560E-03

== TH FLOW =====================================================================
 Step    177 Time=  8.25000E+00 Dt=  5.00000E-02 [y] snes_conv_reason:   11
  newton =   1 [     186] linear =   127 [     21445] cuts =  0 [   0]
  --> max chng: dpmx=   2.1189E-02 dtmpmx=   4.6619E-03

== TH FLOW =====================================================================
 Step    178 Time=  8.30000E+00 Dt=  5.00000E-02 [y] snes_conv_reason:   11
  newton =   1 [     187] linear =   126 [     21571] cuts =  0 [   0]
  --> max chng: dpmx=   1.7793E-02 dtmpmx=   4.0411E-03

== TH FLOW =====================================================================
 Step    179 Time=  8.35000E+00 Dt=  5.00000E-02 [y] snes_conv_reason:   11
  newton =   1 [     188] linear =   125 [     21696] cuts =  0 [   0]
  --> max chng: dpmx=   1.4886E-02 dtmpmx=   3.4887E-03

== TH FLOW =====================================================================
 Step    180 Time=  8.40000E+00 Dt=  5.00000E-02 [y] snes_conv_reason:   11
  newton =   1 [     189] linear =   124 [     21820] cuts =  0 [   0]
  --> max chng: dpmx=   1.2396E-02 dtmpmx=   2.9995E-03

== TH FLOW =====================================================================
 Step    181 Time=  8.45000E+00 Dt=  5.00000E-02 [y] snes_conv_reason:   11
  newton =   1 [     190] linear =   123 [     21943] cuts =  0 [   0]
  --> max chng: dpmx=   1.0273E-02 dtmpmx=   2.5680E-03

== TH FLOW =====================================================================
 Step    182 Time=  8.50000E+00 Dt=  5.00000E-02 [y] snes_conv_reason:   11
  newton =   1 [     191] linear =   124 [     22067] cuts =  0 [   0]
  --> max chng: dpmx=   8.4690E-03 dtmpmx=   2.1894E-03

== TH FLOW =====================================================================
 Step    183 Time=  8.55000E+00 Dt=  5.00000E-02 [y] snes_conv_reason:   11
  newton =   1 [     192] linear =   123 [     22190] cuts =  0 [   0]
  --> max chng: dpmx=   6.9518E-03 dtmpmx=   1.8584E-03

== TH FLOW =====================================================================
 Step    184 Time=  8.60000E+00 Dt=  5.00000E-02 [y] snes_conv_reason:   11
  newton =   1 [     193] linear =   125 [     22315] cuts =  0 [   0]
  --> max chng: dpmx=   5.6708E-03 dtmpmx=   1.5705E-03

== TH FLOW =====================================================================
 Step    185 Time=  8.65000E+00 Dt=  5.00000E-02 [y] snes_conv_reason:   11
  newton =   1 [     194] linear =   128 [     22443] cuts =  0 [   0]
  --> max chng: dpmx=   4.5998E-03 dtmpmx=   1.3209E-03

== TH FLOW =====================================================================
 Step    186 Time=  8.70000E+00 Dt=  5.00000E-02 [y] snes_conv_reason:   11
  newton =   1 [     195] linear =   125 [     22568] cuts =  0 [   0]
  --> max chng: dpmx=   3.7083E-03 dtmpmx=   1.1056E-03

== TH FLOW =====================================================================
 Step    187 Time=  8.75000E+00 Dt=  5.00000E-02 [y] snes_conv_reason:   11
  newton =   1 [     196] linear =   124 [     22692] cuts =  0 [   0]
  --> max chng: dpmx=   2.9687E-03 dtmpmx=   9.2060E-04

== TH FLOW =====================================================================
 Step    188 Time=  8.80000E+00 Dt=  5.00000E-02 [y] snes_conv_reason:   11
  newton =   1 [     197] linear =   122 [     22814] cuts =  0 [   0]
  --> max chng: dpmx=   2.3590E-03 dtmpmx=   7.6221E-04

== TH FLOW =====================================================================
 Step    189 Time=  8.85000E+00 Dt=  5.00000E-02 [y] snes_conv_reason:   11
  newton =   1 [     198] linear =   123 [     22937] cuts =  0 [   0]
  --> max chng: dpmx=   1.8588E-03 dtmpmx=   6.2718E-04

== TH FLOW =====================================================================
 Step    190 Time=  8.90000E+00 Dt=  5.00000E-02 [y] snes_conv_reason:   11
  newton =   1 [     199] linear =   113 [     23050] cuts =  0 [   0]
  --> max chng: dpmx=   2.0165E-03 dtmpmx=   5.1250E-04

== TH FLOW =====================================================================
 Step    191 Time=  8.95000E+00 Dt=  5.00000E-02 [y] snes_conv_reason:   11
  newton =   1 [     200] linear =   119 [     23169] cuts =  0 [   0]
  --> max chng: dpmx=   2.1699E-03 dtmpmx=   4.1546E-04

== TH FLOW =====================================================================
 Step    192 Time=  9.00000E+00 Dt=  5.00000E-02 [y] snes_conv_reason:   11
  newton =   1 [     201] linear =   122 [     23291] cuts =  0 [   0]
  --> max chng: dpmx=   2.3010E-03 dtmpmx=   3.3367E-04

== TH FLOW =====================================================================
 Step    193 Time=  9.05000E+00 Dt=  5.00000E-02 [y] snes_conv_reason:   11
  newton =   1 [     202] linear =   123 [     23414] cuts =  0 [   0]
  --> max chng: dpmx=   2.4117E-03 dtmpmx=   2.6498E-04

== TH FLOW =====================================================================
 Step    194 Time=  9.10000E+00 Dt=  5.00000E-02 [y] snes_conv_reason:   11
  newton =   1 [     203] linear =   122 [     23536] cuts =  0 [   0]
  --> max chng: dpmx=   2.5037E-03 dtmpmx=   2.0750E-04

== TH FLOW =====================================================================
 Step    195 Time=  9.15000E+00 Dt=  5.00000E-02 [y] snes_conv_reason:   11
  newton =   1 [     204] linear =   117 [     23653] cuts =  0 [   0]
  --> max chng: dpmx=   2.5794E-03 dtmpmx=   1.5957E-04

== TH FLOW =====================================================================
 Step    196 Time=  9.20000E+00 Dt=  5.00000E-02 [y] snes_conv_reason:   11
  newton =   1 [     205] linear =   117 [     23770] cuts =  0 [   0]
  --> max chng: dpmx=   2.6427E-03 dtmpmx=   1.1974E-04

== TH FLOW =====================================================================
 Step    197 Time=  9.25000E+00 Dt=  5.00000E-02 [y] snes_conv_reason:   11
  newton =   1 [     206] linear =   109 [     23879] cuts =  0 [   0]
  --> max chng: dpmx=   2.6940E-03 dtmpmx=   8.6750E-05

== TH FLOW =====================================================================
 Step    198 Time=  9.30000E+00 Dt=  5.00000E-02 [y] snes_conv_reason:   11
  newton =   1 [     207] linear =    96 [     23975] cuts =  0 [   0]
  --> max chng: dpmx=   2.7363E-03 dtmpmx=   7.0636E-05

== TH FLOW =====================================================================
 Step    199 Time=  9.35000E+00 Dt=  5.00000E-02 [y] snes_conv_reason:   11
  newton =   1 [     208] linear =   111 [     24086] cuts =  0 [   0]
  --> max chng: dpmx=   2.7691E-03 dtmpmx=   7.0434E-05

== TH FLOW =====================================================================
 Step    200 Time=  9.40000E+00 Dt=  5.00000E-02 [y] snes_conv_reason:   11
  newton =   1 [     209] linear =    99 [     24185] cuts =  0 [   0]
  --> max chng: dpmx=   2.7961E-03 dtmpmx=   7.0235E-05

== TH FLOW =====================================================================
 Step    201 Time=  9.45000E+00 Dt=  5.00000E-02 [y] snes_conv_reason:   11
  newton =   1 [     210] linear =   117 [     24302] cuts =  0 [   0]
  --> max chng: dpmx=   2.8170E-03 dtmpmx=   7.0039E-05

== TH FLOW =====================================================================
 Step    202 Time=  9.50000E+00 Dt=  5.00000E-02 [y] snes_conv_reason:   11
  newton =   1 [     211] linear =   112 [     24414] cuts =  0 [   0]
  --> max chng: dpmx=   2.8330E-03 dtmpmx=   6.9975E-05

== TH FLOW =====================================================================
 Step    203 Time=  9.55000E+00 Dt=  5.00000E-02 [y] snes_conv_reason:   11
  newton =   1 [     212] linear =   101 [     24515] cuts =  0 [   0]
  --> max chng: dpmx=   2.8441E-03 dtmpmx=   6.9925E-05

== TH FLOW =====================================================================
 Step    204 Time=  9.60000E+00 Dt=  5.00000E-02 [y] snes_conv_reason:   11
  newton =   1 [     213] linear =    92 [     24607] cuts =  0 [   0]
  --> max chng: dpmx=   2.8537E-03 dtmpmx=   6.9872E-05

== TH FLOW =====================================================================
 Step    205 Time=  9.65000E+00 Dt=  5.00000E-02 [y] snes_conv_reason:   11
  newton =   1 [     214] linear =    95 [     24702] cuts =  0 [   0]
  --> max chng: dpmx=   2.8577E-03 dtmpmx=   6.9815E-05

== TH FLOW =====================================================================
 Step    206 Time=  9.70000E+00 Dt=  5.00000E-02 [y] snes_conv_reason:   11
  newton =   1 [     215] linear =   103 [     24805] cuts =  0 [   0]
  --> max chng: dpmx=   2.8610E-03 dtmpmx=   6.9757E-05

== TH FLOW =====================================================================
 Step    207 Time=  9.75000E+00 Dt=  5.00000E-02 [y] snes_conv_reason:   11
  newton =   1 [     216] linear =   109 [     24914] cuts =  0 [   0]
  --> max chng: dpmx=   2.8600E-03 dtmpmx=   6.9695E-05

== TH FLOW =====================================================================
 Step    208 Time=  9.80000E+00 Dt=  5.00000E-02 [y] snes_conv_reason:   11
  newton =   1 [     217] linear =   104 [     25018] cuts =  0 [   0]
  --> max chng: dpmx=   2.8584E-03 dtmpmx=   6.9632E-05

== TH FLOW =====================================================================
 Step    209 Time=  9.85000E+00 Dt=  5.00000E-02 [y] snes_conv_reason:   11
  newton =   1 [     218] linear =   106 [     25124] cuts =  0 [   0]
  --> max chng: dpmx=   2.8546E-03 dtmpmx=   6.9566E-05

== TH FLOW =====================================================================
 Step    210 Time=  9.90000E+00 Dt=  5.00000E-02 [y] snes_conv_reason:   11
  newton =   1 [     219] linear =   111 [     25235] cuts =  0 [   0]
  --> max chng: dpmx=   2.8488E-03 dtmpmx=   6.9497E-05

== TH FLOW =====================================================================
 Step    211 Time=  9.95000E+00 Dt=  5.00000E-02 [y] snes_conv_reason:   11
  newton =   1 [     220] linear =   109 [     25344] cuts =  0 [   0]
  --> max chng: dpmx=   2.8418E-03 dtmpmx=   6.9427E-05

== TH FLOW =====================================================================
 Step    212 Time=  1.00000E+01 Dt=  5.00000E-02 [y] snes_conv_reason:   11
  newton =   1 [     221] linear =   108 [     25452] cuts =  0 [   0]
  --> max chng: dpmx=   2.8332E-03 dtmpmx=   6.9355E-05

== TH FLOW =====================================================================
 Step    213 Time=  1.00500E+01 Dt=  5.00000E-02 [y] snes_conv_reason:   11
  newton =   1 [     222] linear =   107 [     25559] cuts =  0 [   0]
  --> max chng: dpmx=   2.8228E-03 dtmpmx=   6.9281E-05

== TH FLOW =====================================================================
 Step    214 Time=  1.01000E+01 Dt=  5.00000E-02 [y] snes_conv_reason:   11
  newton =   1 [     223] linear =   111 [     25670] cuts =  0 [   0]
  --> max chng: dpmx=   2.8114E-03 dtmpmx=   6.9205E-05

== TH FLOW =====================================================================
 Step    215 Time=  1.01500E+01 Dt=  5.00000E-02 [y] snes_conv_reason:   11
  newton =   1 [     224] linear =   107 [     25777] cuts =  0 [   0]
  --> max chng: dpmx=   2.7990E-03 dtmpmx=   6.9127E-05

== TH FLOW =====================================================================
 Step    216 Time=  1.02000E+01 Dt=  5.00000E-02 [y] snes_conv_reason:   11
  newton =   1 [     225] linear =   109 [     25886] cuts =  0 [   0]
  --> max chng: dpmx=   2.7847E-03 dtmpmx=   6.9048E-05

== TH FLOW =====================================================================
 Step    217 Time=  1.02500E+01 Dt=  5.00000E-02 [y] snes_conv_reason:   11
  newton =   1 [     226] linear =   109 [     25995] cuts =  0 [   0]
  --> max chng: dpmx=   2.7697E-03 dtmpmx=   6.8968E-05

== TH FLOW =====================================================================
 Step    218 Time=  1.03000E+01 Dt=  5.00000E-02 [y] snes_conv_reason:   11
  newton =   1 [     227] linear =   107 [     26102] cuts =  0 [   0]
  --> max chng: dpmx=   2.7534E-03 dtmpmx=   6.8886E-05

== TH FLOW =====================================================================
 Step    219 Time=  1.03500E+01 Dt=  5.00000E-02 [y] snes_conv_reason:   11
  newton =   1 [     228] linear =   102 [     26204] cuts =  0 [   0]
  --> max chng: dpmx=   2.7356E-03 dtmpmx=   6.8802E-05

== TH FLOW =====================================================================
 Step    220 Time=  1.04000E+01 Dt=  5.00000E-02 [y] snes_conv_reason:   11
  newton =   1 [     229] linear =    89 [     26293] cuts =  0 [   0]
  --> max chng: dpmx=   2.7172E-03 dtmpmx=   6.8718E-05

== TH FLOW =====================================================================
 Step    221 Time=  1.04500E+01 Dt=  5.00000E-02 [y] snes_conv_reason:   11
  newton =   1 [     230] linear =   111 [     26404] cuts =  0 [   0]
  --> max chng: dpmx=   2.6971E-03 dtmpmx=   6.8632E-05

== TH FLOW =====================================================================
 Step    222 Time=  1.05000E+01 Dt=  5.00000E-02 [y] snes_conv_reason:   11
  newton =   1 [     231] linear =   109 [     26513] cuts =  0 [   0]
  --> max chng: dpmx=   2.6763E-03 dtmpmx=   6.8545E-05

== TH FLOW =====================================================================
 Step    223 Time=  1.05500E+01 Dt=  5.00000E-02 [y] snes_conv_reason:   11
  newton =   1 [     232] linear =   107 [     26620] cuts =  0 [   0]
  --> max chng: dpmx=   2.6537E-03 dtmpmx=   6.8457E-05

== TH FLOW =====================================================================
 Step    224 Time=  1.06000E+01 Dt=  5.00000E-02 [y] snes_conv_reason:   11
  newton =   1 [     233] linear =   109 [     26729] cuts =  0 [   0]
  --> max chng: dpmx=   2.6310E-03 dtmpmx=   6.8368E-05

== TH FLOW =====================================================================
 Step    225 Time=  1.06500E+01 Dt=  5.00000E-02 [y] snes_conv_reason:   11
  newton =   1 [     234] linear =   108 [     26837] cuts =  0 [   0]
  --> max chng: dpmx=   2.6065E-03 dtmpmx=   6.8278E-05

== TH FLOW =====================================================================
 Step    226 Time=  1.07000E+01 Dt=  5.00000E-02 [y] snes_conv_reason:   11
  newton =   1 [     235] linear =   108 [     26945] cuts =  0 [   0]
  --> max chng: dpmx=   2.5808E-03 dtmpmx=   6.8187E-05

== TH FLOW =====================================================================
 Step    227 Time=  1.07500E+01 Dt=  5.00000E-02 [y] snes_conv_reason:   11
  newton =   1 [     236] linear =   106 [     27051] cuts =  0 [   0]
  --> max chng: dpmx=   2.5546E-03 dtmpmx=   6.8095E-05

== TH FLOW =====================================================================
 Step    228 Time=  1.08000E+01 Dt=  5.00000E-02 [y] snes_conv_reason:   11
  newton =   1 [     237] linear =   106 [     27157] cuts =  0 [   0]
  --> max chng: dpmx=   2.5265E-03 dtmpmx=   6.8002E-05

== TH FLOW =====================================================================
 Step    229 Time=  1.08500E+01 Dt=  5.00000E-02 [y] snes_conv_reason:   11
  newton =   1 [     238] linear =    90 [     27247] cuts =  0 [   0]
  --> max chng: dpmx=   2.4981E-03 dtmpmx=   6.7909E-05

== TH FLOW =====================================================================
 Step    230 Time=  1.09000E+01 Dt=  5.00000E-02 [y] snes_conv_reason:   11
  newton =   1 [     239] linear =   102 [     27349] cuts =  0 [   0]
  --> max chng: dpmx=   2.4680E-03 dtmpmx=   6.7815E-05

== TH FLOW =====================================================================
 Step    231 Time=  1.09500E+01 Dt=  5.00000E-02 [y] snes_conv_reason:   11
  newton =   1 [     240] linear =    92 [     27441] cuts =  0 [   0]
  --> max chng: dpmx=   2.4369E-03 dtmpmx=   6.7721E-05

== TH FLOW =====================================================================
 Step    232 Time=  1.10000E+01 Dt=  5.00000E-02 [y] snes_conv_reason:   11
  newton =   1 [     241] linear =   110 [     27551] cuts =  0 [   0]
  --> max chng: dpmx=   2.4059E-03 dtmpmx=   6.7625E-05

== TH FLOW =====================================================================
 Step    233 Time=  1.10500E+01 Dt=  5.00000E-02 [y] snes_conv_reason:   11
  newton =   1 [     242] linear =   110 [     27661] cuts =  0 [   0]
  --> max chng: dpmx=   2.3726E-03 dtmpmx=   6.7530E-05

== TH FLOW =====================================================================
 Step    234 Time=  1.11000E+01 Dt=  5.00000E-02 [y] snes_conv_reason:   11
  newton =   1 [     243] linear =    98 [     27759] cuts =  0 [   0]
  --> max chng: dpmx=   2.3387E-03 dtmpmx=   6.7433E-05

== TH FLOW =====================================================================
 Step    235 Time=  1.11500E+01 Dt=  5.00000E-02 [y] snes_conv_reason:   11
  newton =   1 [     244] linear =   108 [     27867] cuts =  0 [   0]
  --> max chng: dpmx=   2.3034E-03 dtmpmx=   6.7337E-05

== TH FLOW =====================================================================
 Step    236 Time=  1.12000E+01 Dt=  5.00000E-02 [y] snes_conv_reason:   11
  newton =   1 [     245] linear =    96 [     27963] cuts =  0 [   0]
  --> max chng: dpmx=   2.2682E-03 dtmpmx=   6.7239E-05

== TH FLOW =====================================================================
 Step    237 Time=  1.12500E+01 Dt=  5.00000E-02 [y] snes_conv_reason:   11
  newton =   1 [     246] linear =   107 [     28070] cuts =  0 [   0]
  --> max chng: dpmx=   2.2309E-03 dtmpmx=   6.7142E-05

== TH FLOW =====================================================================
 Step    238 Time=  1.13000E+01 Dt=  5.00000E-02 [y] snes_conv_reason:   11
  newton =   1 [     247] linear =   104 [     28174] cuts =  0 [   0]
  --> max chng: dpmx=   2.1935E-03 dtmpmx=   6.7044E-05

== TH FLOW =====================================================================
 Step    239 Time=  1.13500E+01 Dt=  5.00000E-02 [y] snes_conv_reason:   11
  newton =   1 [     248] linear =   102 [     28276] cuts =  0 [   0]
  --> max chng: dpmx=   2.1550E-03 dtmpmx=   6.6946E-05

== TH FLOW =====================================================================
 Step    240 Time=  1.14000E+01 Dt=  5.00000E-02 [y] snes_conv_reason:   11
  newton =   1 [     249] linear =   103 [     28379] cuts =  0 [   0]
  --> max chng: dpmx=   2.1155E-03 dtmpmx=   6.6847E-05

== TH FLOW =====================================================================
 Step    241 Time=  1.14500E+01 Dt=  5.00000E-02 [y] snes_conv_reason:   11
  newton =   1 [     250] linear =   110 [     28489] cuts =  0 [   0]
  --> max chng: dpmx=   2.0751E-03 dtmpmx=   6.6748E-05

== TH FLOW =====================================================================
 Step    242 Time=  1.15000E+01 Dt=  5.00000E-02 [y] snes_conv_reason:   11
  newton =   1 [     251] linear =   106 [     28595] cuts =  0 [   0]
  --> max chng: dpmx=   2.0343E-03 dtmpmx=   6.6649E-05

== TH FLOW =====================================================================
 Step    243 Time=  1.15500E+01 Dt=  5.00000E-02 [y] snes_conv_reason:   11
  newton =   1 [     252] linear =   107 [     28702] cuts =  0 [   0]
  --> max chng: dpmx=   1.9923E-03 dtmpmx=   6.6549E-05

== TH FLOW =====================================================================
 Step    244 Time=  1.16000E+01 Dt=  5.00000E-02 [y] snes_conv_reason:   11
  newton =   1 [     253] linear =   104 [     28806] cuts =  0 [   0]
  --> max chng: dpmx=   1.9499E-03 dtmpmx=   6.6443E-05

== TH FLOW =====================================================================
 Step    245 Time=  1.16500E+01 Dt=  5.00000E-02 [y] snes_conv_reason:   11
  newton =   1 [     254] linear =    98 [     28904] cuts =  0 [   0]
  --> max chng: dpmx=   1.9063E-03 dtmpmx=   6.6311E-05

== TH FLOW =====================================================================
 Step    246 Time=  1.17000E+01 Dt=  5.00000E-02 [y] snes_conv_reason:   11
  newton =   1 [     255] linear =   102 [     29006] cuts =  0 [   0]
  --> max chng: dpmx=   1.8627E-03 dtmpmx=   6.6138E-05

== TH FLOW =====================================================================
 Step    247 Time=  1.17500E+01 Dt=  5.00000E-02 [y] snes_conv_reason:   11
  newton =   1 [     256] linear =   102 [     29108] cuts =  0 [   0]
  --> max chng: dpmx=   1.8181E-03 dtmpmx=   6.5923E-05

== TH FLOW =====================================================================
 Step    248 Time=  1.18000E+01 Dt=  5.00000E-02 [y] snes_conv_reason:   11
  newton =   1 [     257] linear =   101 [     29209] cuts =  0 [   0]
  --> max chng: dpmx=   1.7734E-03 dtmpmx=   6.5662E-05

== TH FLOW =====================================================================
 Step    249 Time=  1.18500E+01 Dt=  5.00000E-02 [y] snes_conv_reason:   11
  newton =   1 [     258] linear =   106 [     29315] cuts =  0 [   0]
  --> max chng: dpmx=   1.7279E-03 dtmpmx=   6.5353E-05

== TH FLOW =====================================================================
 Step    250 Time=  1.19000E+01 Dt=  5.00000E-02 [y] snes_conv_reason:   11
  newton =   1 [     259] linear =   100 [     29415] cuts =  0 [   0]
  --> max chng: dpmx=   1.6819E-03 dtmpmx=   6.4995E-05

== TH FLOW =====================================================================
 Step    251 Time=  1.19500E+01 Dt=  5.00000E-02 [y] snes_conv_reason:   11
  newton =   1 [     260] linear =   105 [     29520] cuts =  0 [   0]
  --> max chng: dpmx=   1.6358E-03 dtmpmx=   6.4586E-05

== TH FLOW =====================================================================
 Step    252 Time=  1.20000E+01 Dt=  5.00000E-02 [y] snes_conv_reason:   11
  newton =   1 [     261] linear =   105 [     29625] cuts =  0 [   0]
  --> max chng: dpmx=   1.5892E-03 dtmpmx=   6.4124E-05

== TH FLOW =====================================================================
 Step    253 Time=  1.20500E+01 Dt=  5.00000E-02 [y] snes_conv_reason:   11
  newton =   1 [     262] linear =   104 [     29729] cuts =  0 [   0]
  --> max chng: dpmx=   1.5430E-03 dtmpmx=   6.3608E-05

== TH FLOW =====================================================================
 Step    254 Time=  1.21000E+01 Dt=  5.00000E-02 [y] snes_conv_reason:   11
  newton =   1 [     263] linear =   105 [     29834] cuts =  0 [   0]
  --> max chng: dpmx=   1.4952E-03 dtmpmx=   6.3036E-05

== TH FLOW =====================================================================
 Step    255 Time=  1.21500E+01 Dt=  5.00000E-02 [y] snes_conv_reason:   11
  newton =   1 [     264] linear =   109 [     29943] cuts =  0 [   0]
  --> max chng: dpmx=   1.4489E-03 dtmpmx=   6.2408E-05

== TH FLOW =====================================================================
 Step    256 Time=  1.22000E+01 Dt=  5.00000E-02 [y] snes_conv_reason:   11
  newton =   1 [     265] linear =   108 [     30051] cuts =  0 [   0]
  --> max chng: dpmx=   1.4012E-03 dtmpmx=   6.1722E-05

== TH FLOW =====================================================================
 Step    257 Time=  1.22500E+01 Dt=  5.00000E-02 [y] snes_conv_reason:   11
  newton =   1 [     266] linear =   113 [     30164] cuts =  0 [   0]
  --> max chng: dpmx=   1.3545E-03 dtmpmx=   6.0978E-05

[...]
 Step    493 Time=  2.40500E+01 Dt=  5.00000E-02 [y] snes_conv_reason:   11
  newton =   1 [     502] linear =   113 [     57356] cuts =  0 [   0]
  --> max chng: dpmx=   6.5193E-09 dtmpmx=   3.7157E-10

== TH FLOW =====================================================================
 Step    494 Time=  2.41000E+01 Dt=  5.00000E-02 [y] snes_conv_reason:   11
  newton =   1 [     503] linear =   112 [     57468] cuts =  0 [   0]
  --> max chng: dpmx=   6.2864E-09 dtmpmx=   3.7315E-10

== TH FLOW =====================================================================
 Step    495 Time=  2.41500E+01 Dt=  5.00000E-02 [y] snes_conv_reason:   11
  newton =   1 [     504] linear =   107 [     57575] cuts =  0 [   0]
  --> max chng: dpmx=   6.0536E-09 dtmpmx=   3.4678E-10

== TH FLOW =====================================================================
 Step    496 Time=  2.42000E+01 Dt=  5.00000E-02 [y] snes_conv_reason:   11
  newton =   1 [     505] linear =   115 [     57690] cuts =  0 [   0]
  --> max chng: dpmx=   5.8208E-09 dtmpmx=   3.2617E-10

== TH FLOW =====================================================================
 Step    497 Time=  2.42500E+01 Dt=  5.00000E-02 [y] snes_conv_reason:   11
  newton =   1 [     506] linear =   114 [     57804] cuts =  0 [   0]
  --> max chng: dpmx=   5.5879E-09 dtmpmx=   3.3193E-10

== TH FLOW =====================================================================
 Step    498 Time=  2.43000E+01 Dt=  5.00000E-02 [y] snes_conv_reason:   11
  newton =   1 [     507] linear =   114 [     57918] cuts =  0 [   0]
  --> max chng: dpmx=   5.3551E-09 dtmpmx=   3.0679E-10

== TH FLOW =====================================================================
 Step    499 Time=  2.43500E+01 Dt=  5.00000E-02 [y] snes_conv_reason:   11
  newton =   1 [     508] linear =   112 [     58030] cuts =  0 [   0]
  --> max chng: dpmx=   5.1223E-09 dtmpmx=   2.9368E-10

== TH FLOW =====================================================================
 Step    500 Time=  2.44000E+01 Dt=  5.00000E-02 [y] snes_conv_reason:   11
  newton =   1 [     509] linear =   115 [     58145] cuts =  0 [   0]
  --> max chng: dpmx=   4.8894E-09 dtmpmx=   2.9889E-10

== TH FLOW =====================================================================
 Step    501 Time=  2.44500E+01 Dt=  5.00000E-02 [y] snes_conv_reason:   11
  newton =   1 [     510] linear =   114 [     58259] cuts =  0 [   0]
  --> max chng: dpmx=   4.6566E-09 dtmpmx=   2.9806E-10

== TH FLOW =====================================================================
 Step    502 Time=  2.45000E+01 Dt=  5.00000E-02 [y] snes_conv_reason:   11
  newton =   1 [     511] linear =   115 [     58374] cuts =  0 [   0]
  --> max chng: dpmx=   4.4238E-09 dtmpmx=   2.7049E-10

== TH FLOW =====================================================================
 Step    503 Time=  2.45500E+01 Dt=  5.00000E-02 [y] snes_conv_reason:   11
  newton =   1 [     512] linear =   117 [     58491] cuts =  0 [   0]
  --> max chng: dpmx=   4.1910E-09 dtmpmx=   2.8132E-10

== TH FLOW =====================================================================
 Step    504 Time=  2.46000E+01 Dt=  5.00000E-02 [y] snes_conv_reason:   11
  newton =   1 [     513] linear =   118 [     58609] cuts =  0 [   0]
  --> max chng: dpmx=   4.0745E-09 dtmpmx=   2.5926E-10

== TH FLOW =====================================================================
 Step    505 Time=  2.46500E+01 Dt=  5.00000E-02 [y] snes_conv_reason:   11
  newton =   1 [     514] linear =   109 [     58718] cuts =  0 [   0]
  --> max chng: dpmx=   3.8417E-09 dtmpmx=   2.5530E-10

== TH FLOW =====================================================================
 Step    506 Time=  2.47000E+01 Dt=  5.00000E-02 [y] snes_conv_reason:   11
  newton =   1 [     515] linear =   117 [     58835] cuts =  0 [   0]
  --> max chng: dpmx=   3.7253E-09 dtmpmx=   2.6198E-10

== TH FLOW =====================================================================
 Step    507 Time=  2.47500E+01 Dt=  5.00000E-02 [y] snes_conv_reason:   11
  newton =   1 [     516] linear =   118 [     58953] cuts =  0 [   0]
  --> max chng: dpmx=   3.4925E-09 dtmpmx=   2.2592E-10

== TH FLOW =====================================================================
 Step    508 Time=  2.48000E+01 Dt=  5.00000E-02 [y] snes_conv_reason:   11
  newton =   1 [     517] linear =   121 [     59074] cuts =  0 [   0]
  --> max chng: dpmx=   3.3760E-09 dtmpmx=   2.4421E-10

== TH FLOW =====================================================================
 Step    509 Time=  2.48500E+01 Dt=  5.00000E-02 [y] snes_conv_reason:   11
  newton =   1 [     518] linear =   120 [     59194] cuts =  0 [   0]
  --> max chng: dpmx=   3.1432E-09 dtmpmx=   2.1591E-10

== TH FLOW =====================================================================
 Step    510 Time=  2.49000E+01 Dt=  5.00000E-02 [y] snes_conv_reason:   11
  newton =   1 [     519] linear =   126 [     59320] cuts =  0 [   0]
  --> max chng: dpmx=   3.0268E-09 dtmpmx=   2.1241E-10

== TH FLOW =====================================================================
 Step    511 Time=  2.49500E+01 Dt=  5.00000E-02 [y] snes_conv_reason:   11
  newton =   1 [     520] linear =   122 [     59442] cuts =  0 [   0]
  --> max chng: dpmx=   2.9104E-09 dtmpmx=   2.0060E-10

== TH FLOW =====================================================================
 Step    512 Time=  2.50000E+01 Dt=  5.00000E-02 [y] snes_conv_reason:   11
  newton =   1 [     521] linear =   124 [     59566] cuts =  0 [   0]
  --> max chng: dpmx=   2.6776E-09 dtmpmx=   2.0003E-10

== TH FLOW =====================================================================
 Step    513 Time=  2.50500E+01 Dt=  5.00000E-02 [y] snes_conv_reason:   11
  newton =   1 [     522] linear =   123 [     59689] cuts =  0 [   0]
  --> max chng: dpmx=   2.5611E-09 dtmpmx=   1.9496E-10

== TH FLOW =====================================================================
 Step    514 Time=  2.51000E+01 Dt=  5.00000E-02 [y] snes_conv_reason:   11
  newton =   1 [     523] linear =   122 [     59811] cuts =  0 [   0]
  --> max chng: dpmx=   2.4447E-09 dtmpmx=   1.9329E-10

== TH FLOW =====================================================================
 Step    515 Time=  2.51500E+01 Dt=  5.00000E-02 [y] snes_conv_reason:   11
  newton =   1 [     524] linear =   119 [     59930] cuts =  0 [   0]
  --> max chng: dpmx=   2.3283E-09 dtmpmx=   1.7177E-10

== TH FLOW =====================================================================
 Step    516 Time=  2.52000E+01 Dt=  5.00000E-02 [y] snes_conv_reason:   11
  newton =   1 [     525] linear =   117 [     60047] cuts =  0 [   0]
  --> max chng: dpmx=   2.2119E-09 dtmpmx=   1.6271E-10

== TH FLOW =====================================================================
 Step    517 Time=  2.52500E+01 Dt=  5.00000E-02 [y] snes_conv_reason:   11
  newton =   1 [     526] linear =   120 [     60167] cuts =  0 [   0]
  --> max chng: dpmx=   2.0955E-09 dtmpmx=   1.4601E-10

== TH FLOW =====================================================================
 Step    518 Time=  2.53000E+01 Dt=  5.00000E-02 [y] snes_conv_reason:   11
  newton =   1 [     527] linear =   117 [     60284] cuts =  0 [   0]
  --> max chng: dpmx=   1.9791E-09 dtmpmx=   1.5417E-10

== TH FLOW =====================================================================
 Step    519 Time=  2.53500E+01 Dt=  5.00000E-02 [y] snes_conv_reason:   11
  newton =   1 [     528] linear =   120 [     60404] cuts =  0 [   0]
  --> max chng: dpmx=   1.8626E-09 dtmpmx=   1.4485E-10

== TH FLOW =====================================================================
 Step    520 Time=  2.54000E+01 Dt=  5.00000E-02 [y] snes_conv_reason:   11
  newton =   1 [     529] linear =   116 [     60520] cuts =  0 [   0]
  --> max chng: dpmx=   1.8626E-09 dtmpmx=   1.4261E-10

== TH FLOW =====================================================================
 Step    521 Time=  2.54500E+01 Dt=  5.00000E-02 [y] snes_conv_reason:   11
  newton =   1 [     530] linear =   116 [     60636] cuts =  0 [   0]
  --> max chng: dpmx=   1.7462E-09 dtmpmx=   1.3736E-10

== TH FLOW =====================================================================
 Step    522 Time=  2.55000E+01 Dt=  5.00000E-02 [y] snes_conv_reason:   11
  newton =   1 [     531] linear =   122 [     60758] cuts =  0 [   0]
  --> max chng: dpmx=   1.6298E-09 dtmpmx=   1.1700E-10

== TH FLOW =====================================================================
 Step    523 Time=  2.55500E+01 Dt=  5.00000E-02 [y] snes_conv_reason:   11
  newton =   1 [     532] linear =   125 [     60883] cuts =  0 [   0]
  --> max chng: dpmx=   1.5134E-09 dtmpmx=   1.2927E-10

== TH FLOW =====================================================================
 Step    524 Time=  2.56000E+01 Dt=  5.00000E-02 [y] snes_conv_reason:   11
  newton =   1 [     533] linear =   122 [     61005] cuts =  0 [   0]
  --> max chng: dpmx=   1.3970E-09 dtmpmx=   1.3470E-10

== TH FLOW =====================================================================
 Step    525 Time=  2.56500E+01 Dt=  5.00000E-02 [y] snes_conv_reason:   11
  newton =   1 [     534] linear =   128 [     61133] cuts =  0 [   0]
  --> max chng: dpmx=   1.3970E-09 dtmpmx=   1.3249E-10

== TH FLOW =====================================================================
 Step    526 Time=  2.57000E+01 Dt=  5.00000E-02 [y] snes_conv_reason:   11
  newton =   1 [     535] linear =   120 [     61253] cuts =  0 [   0]
  --> max chng: dpmx=   1.2806E-09 dtmpmx=   1.0854E-10

== TH FLOW =====================================================================
 Step    527 Time=  2.57500E+01 Dt=  5.00000E-02 [y] snes_conv_reason:   11
  newton =   1 [     536] linear =   119 [     61372] cuts =  0 [   0]
  --> max chng: dpmx=   1.1642E-09 dtmpmx=   1.2993E-10

== TH FLOW =====================================================================
 Step    528 Time=  2.58000E+01 Dt=  5.00000E-02 [y] snes_conv_reason:   11
  newton =   1 [     537] linear =   119 [     61491] cuts =  0 [   0]
  --> max chng: dpmx=   1.0477E-09 dtmpmx=   1.2371E-10

== TH FLOW =====================================================================
 Step    529 Time=  2.58500E+01 Dt=  5.00000E-02 [y] snes_conv_reason:   11
  newton =   1 [     538] linear =   122 [     61613] cuts =  0 [   0]
  --> max chng: dpmx=   1.0477E-09 dtmpmx=   1.0681E-10

== TH FLOW =====================================================================
 Step    530 Time=  2.59000E+01 Dt=  5.00000E-02 [y] snes_conv_reason:   11
  newton =   1 [     539] linear =   105 [     61718] cuts =  0 [   0]
  --> max chng: dpmx=   9.3132E-10 dtmpmx=   1.2298E-10

== TH FLOW =====================================================================
 Step    531 Time=  2.59500E+01 Dt=  5.00000E-02 [y] snes_conv_reason:   11
  newton =   1 [     540] linear =   129 [     61847] cuts =  0 [   0]
  --> max chng: dpmx=   9.3132E-10 dtmpmx=   8.7530E-11

== TH FLOW =====================================================================
 Step    532 Time=  2.60000E+01 Dt=  5.00000E-02 [y] snes_conv_reason:   11
  newton =   1 [     541] linear =   120 [     61967] cuts =  0 [   0]
  --> max chng: dpmx=   8.1491E-10 dtmpmx=   1.0313E-10

== TH FLOW =====================================================================
 Step    533 Time=  2.60500E+01 Dt=  5.00000E-02 [y] snes_conv_reason:   11
  newton =   1 [     542] linear =   115 [     62082] cuts =  0 [   0]
  --> max chng: dpmx=   8.1491E-10 dtmpmx=   9.7126E-11

== TH FLOW =====================================================================
 Step    534 Time=  2.61000E+01 Dt=  5.00000E-02 [y] snes_conv_reason:   11
  newton =   1 [     543] linear =   126 [     62208] cuts =  0 [   0]
  --> max chng: dpmx=   8.1491E-10 dtmpmx=   8.7512E-11

== TH FLOW =====================================================================
 Step    535 Time=  2.61500E+01 Dt=  5.00000E-02 [y] snes_conv_reason:   11
  newton =   1 [     544] linear =   120 [     62328] cuts =  0 [   0]
  --> max chng: dpmx=   6.9849E-10 dtmpmx=   9.0024E-11

== TH FLOW =====================================================================
 Step    536 Time=  2.62000E+01 Dt=  5.00000E-02 [y] snes_conv_reason:   11
  newton =   1 [     545] linear =   115 [     62443] cuts =  0 [   0]
  --> max chng: dpmx=   6.9849E-10 dtmpmx=   8.6114E-11

== TH FLOW =====================================================================
 Step    537 Time=  2.62500E+01 Dt=  5.00000E-02 [y] snes_conv_reason:   11
  newton =   1 [     546] linear =   123 [     62566] cuts =  0 [   0]
  --> max chng: dpmx=   5.8208E-10 dtmpmx=   7.8630E-11

== TH FLOW =====================================================================
 Step    538 Time=  2.63000E+01 Dt=  5.00000E-02 [y] snes_conv_reason:   11
  newton =   1 [     547] linear =   108 [     62674] cuts =  0 [   0]
  --> max chng: dpmx=   5.8208E-10 dtmpmx=   8.0357E-11

== TH FLOW =====================================================================
 Step    539 Time=  2.63500E+01 Dt=  5.00000E-02 [y] snes_conv_reason:   11
  newton =   1 [     548] linear =   121 [     62795] cuts =  0 [   0]
  --> max chng: dpmx=   5.8208E-10 dtmpmx=   8.0298E-11

== TH FLOW =====================================================================
 Step    540 Time=  2.64000E+01 Dt=  5.00000E-02 [y] snes_conv_reason:   11
  newton =   1 [     549] linear =   113 [     62908] cuts =  0 [   0]
  --> max chng: dpmx=   4.6566E-10 dtmpmx=   7.5495E-11

== TH FLOW =====================================================================
 Step    541 Time=  2.64500E+01 Dt=  5.00000E-02 [y] snes_conv_reason:   11
  newton =   1 [     550] linear =   119 [     63027] cuts =  0 [   0]
  --> max chng: dpmx=   4.6566E-10 dtmpmx=   7.2520E-11

== TH FLOW =====================================================================
 Step    542 Time=  2.65000E+01 Dt=  5.00000E-02 [y] snes_conv_reason:   11
  newton =   1 [     551] linear =   124 [     63151] cuts =  0 [   0]
  --> max chng: dpmx=   4.6566E-10 dtmpmx=   7.8956E-11

== TH FLOW =====================================================================
 Step    543 Time=  2.65500E+01 Dt=  5.00000E-02 [y] snes_conv_reason:   11
  newton =   1 [     552] linear =   121 [     63272] cuts =  0 [   0]
  --> max chng: dpmx=   4.6566E-10 dtmpmx=   6.8772E-11

== TH FLOW =====================================================================
 Step    544 Time=  2.66000E+01 Dt=  5.00000E-02 [y] snes_conv_reason:   11
  newton =   1 [     553] linear =   119 [     63391] cuts =  0 [   0]
  --> max chng: dpmx=   3.4925E-10 dtmpmx=   7.2809E-11

== TH FLOW =====================================================================
 Step    545 Time=  2.66500E+01 Dt=  5.00000E-02 [y] snes_conv_reason:   11
  newton =   1 [     554] linear =   120 [     63511] cuts =  0 [   0]
  --> max chng: dpmx=   3.4925E-10 dtmpmx=   7.6334E-11

== TH FLOW =====================================================================
 Step    546 Time=  2.67000E+01 Dt=  5.00000E-02 [y] snes_conv_reason:   11
  newton =   1 [     555] linear =   117 [     63628] cuts =  0 [   0]
  --> max chng: dpmx=   3.4925E-10 dtmpmx=   6.7976E-11

== TH FLOW =====================================================================
 Step    547 Time=  2.67500E+01 Dt=  5.00000E-02 [y] snes_conv_reason:   11
  newton =   1 [     556] linear =   123 [     63751] cuts =  0 [   0]
  --> max chng: dpmx=   3.4925E-10 dtmpmx=   7.1307E-11

== TH FLOW =====================================================================
 Step    548 Time=  2.68000E+01 Dt=  5.00000E-02 [y] snes_conv_reason:   11
  newton =   1 [     557] linear =   119 [     63870] cuts =  0 [   0]
  --> max chng: dpmx=   3.4925E-10 dtmpmx=   6.7384E-11

== TH FLOW =====================================================================
 Step    549 Time=  2.68500E+01 Dt=  5.00000E-02 [y] snes_conv_reason:   11
  newton =   1 [     558] linear =   119 [     63989] cuts =  0 [   0]
  --> max chng: dpmx=   2.3283E-10 dtmpmx=   6.8630E-11

== TH FLOW =====================================================================
 Step    550 Time=  2.69000E+01 Dt=  5.00000E-02 [y] snes_conv_reason:   11
  newton =   1 [     559] linear =   114 [     64103] cuts =  0 [   0]
  --> max chng: dpmx=   2.3283E-10 dtmpmx=   7.5518E-11

== TH FLOW =====================================================================
 Step    551 Time=  2.69500E+01 Dt=  5.00000E-02 [y] snes_conv_reason:   11
  newton =   1 [     560] linear =   112 [     64215] cuts =  0 [   0]
  --> max chng: dpmx=   2.3283E-10 dtmpmx=   6.9726E-11

== TH FLOW =====================================================================
 Step    552 Time=  2.70000E+01 Dt=  5.00000E-02 [y] snes_conv_reason:   11
  newton =   1 [     561] linear =   112 [     64327] cuts =  0 [   0]
  --> max chng: dpmx=   2.3283E-10 dtmpmx=   7.3861E-11

== TH FLOW =====================================================================
 Step    553 Time=  2.70500E+01 Dt=  5.00000E-02 [y] snes_conv_reason:   11
  newton =   1 [     562] linear =   115 [     64442] cuts =  0 [   0]
  --> max chng: dpmx=   2.3283E-10 dtmpmx=   7.8016E-11

== TH FLOW =====================================================================
 Step    554 Time=  2.71000E+01 Dt=  5.00000E-02 [y] snes_conv_reason:   11
  newton =   1 [     563] linear =   119 [     64561] cuts =  0 [   0]
  --> max chng: dpmx=   2.3283E-10 dtmpmx=   6.8699E-11

== TH FLOW =====================================================================
 Step    555 Time=  2.71500E+01 Dt=  5.00000E-02 [y] snes_conv_reason:   11
  newton =   1 [     564] linear =   117 [     64678] cuts =  0 [   0]
  --> max chng: dpmx=   2.3283E-10 dtmpmx=   7.0260E-11

== TH FLOW =====================================================================
 Step    556 Time=  2.72000E+01 Dt=  5.00000E-02 [y] snes_conv_reason:   11
  newton =   1 [     565] linear =   109 [     64787] cuts =  0 [   0]
  --> max chng: dpmx=   2.3283E-10 dtmpmx=   6.9878E-11

== TH FLOW =====================================================================
 Step    557 Time=  2.72500E+01 Dt=  5.00000E-02 [y] snes_conv_reason:   11
  newton =   1 [     566] linear =   108 [     64895] cuts =  0 [   0]
  --> max chng: dpmx=   2.3283E-10 dtmpmx=   7.4589E-11

== TH FLOW =====================================================================
 Step    558 Time=  2.73000E+01 Dt=  5.00000E-02 [y] snes_conv_reason:   11
  newton =   1 [     567] linear =   108 [     65003] cuts =  0 [   0]
  --> max chng: dpmx=   2.3283E-10 dtmpmx=   6.7821E-11

== TH FLOW =====================================================================
 Step    559 Time=  2.73500E+01 Dt=  5.00000E-02 [y] snes_conv_reason:   11
  newton =   1 [     568] linear =   120 [     65123] cuts =  0 [   0]
  --> max chng: dpmx=   2.3283E-10 dtmpmx=   7.0296E-11

== TH FLOW =====================================================================
 Step    560 Time=  2.74000E+01 Dt=  5.00000E-02 [y] snes_conv_reason:   11
  newton =   1 [     569] linear =    72 [     65195] cuts =  0 [   0]
  --> max chng: dpmx=   1.1642E-10 dtmpmx=   6.8818E-11

== TH FLOW =====================================================================
 Step    561 Time=  2.74500E+01 Dt=  5.00000E-02 [y] snes_conv_reason:   11
  newton =   1 [     570] linear =   110 [     65305] cuts =  0 [   0]
  --> max chng: dpmx=   1.1642E-10 dtmpmx=   6.2306E-11

== TH FLOW =====================================================================
 Step    562 Time=  2.75000E+01 Dt=  5.00000E-02 [y] snes_conv_reason:   11
  newton =   1 [     571] linear =   116 [     65421] cuts =  0 [   0]
  --> max chng: dpmx=   1.1642E-10 dtmpmx=   7.4744E-11

 Wall Clock Time:  1.1482E+02 [sec]   1.9137E+00 [min]   3.1894E-02 [hr]
