
===================
  PFLOTRAN v3.0.1
===================

 Extent of Gridded Domain
  X: 2.5000000000000000 - 97.500000000000000
  Y: 2.5000000000000000 - 1277.5000000000000
  Z: 2.5000000000000000 - 2.5000000000000000


=+=+=+=+=+=+=+=+=+=+=+=+=+=+=+=+=+=+=+=+=+=+=+=+=+=+=+=+=+=+=+=+=+=+=+=+=+=+=+=+

  Initial Condition

--------------------------------------------------------------------------------
          Flow Condition:   initial
                  Region:   all
--------------------------------------------------------------------------------

  Flow Condition: initial
    Synchronize time with update: no
    Time units: yr
    Length units: m
      Datum:
        Dataset: Unnamed Ascii Dataset
          Type: dataset_ascii_type
          Transient: no
          Array Rank:  3

    Sub Condition: pressure
      Type: hydrostatic
      Gradient:
        Dataset: Unnamed Ascii Dataset
          Type: dataset_ascii_type
          Transient: no
          Array Rank:  3
      Data:
        Dataset: Unnamed Ascii Dataset
          Type: dataset_ascii_type
          Transient: no
          Array Rank:  1

    Sub Condition: temperature
      Type: dirichlet
      Gradient:
      Data:
        Dataset: Unnamed Ascii Dataset
          Type: dataset_ascii_type
          Transient: no
          Array Rank:  1

--------------------------------------------------------------------------------

=+=+=+=+=+=+=+=+=+=+=+=+=+=+=+=+=+=+=+=+=+=+=+=+=+=+=+=+=+=+=+=+=+=+=+=+=+=+=+=+

  Boundary Condition

--------------------------------------------------------------------------------
          Flow Condition:   initial
                  Region:   north
--------------------------------------------------------------------------------

  Flow Condition: initial
    Synchronize time with update: no
    Time units: yr
    Length units: m
      Datum:
        Dataset: Unnamed Ascii Dataset
          Type: dataset_ascii_type
          Transient: no
          Array Rank:  3

    Sub Condition: pressure
      Type: hydrostatic
      Gradient:
        Dataset: Unnamed Ascii Dataset
          Type: dataset_ascii_type
          Transient: no
          Array Rank:  3
      Data:
        Dataset: Unnamed Ascii Dataset
          Type: dataset_ascii_type
          Transient: no
          Array Rank:  1

    Sub Condition: temperature
      Type: dirichlet
      Gradient:
      Data:
        Dataset: Unnamed Ascii Dataset
          Type: dataset_ascii_type
          Transient: no
          Array Rank:  1

--------------------------------------------------------------------------------

=+=+=+=+=+=+=+=+=+=+=+=+=+=+=+=+=+=+=+=+=+=+=+=+=+=+=+=+=+=+=+=+=+=+=+=+=+=+=+=+

  Boundary Condition

--------------------------------------------------------------------------------
          Flow Condition:   initial
                  Region:   south
--------------------------------------------------------------------------------

  Flow Condition: initial
    Synchronize time with update: no
    Time units: yr
    Length units: m
      Datum:
        Dataset: Unnamed Ascii Dataset
          Type: dataset_ascii_type
          Transient: no
          Array Rank:  3

    Sub Condition: pressure
      Type: hydrostatic
      Gradient:
        Dataset: Unnamed Ascii Dataset
          Type: dataset_ascii_type
          Transient: no
          Array Rank:  3
      Data:
        Dataset: Unnamed Ascii Dataset
          Type: dataset_ascii_type
          Transient: no
          Array Rank:  1

    Sub Condition: temperature
      Type: dirichlet
      Gradient:
      Data:
        Dataset: Unnamed Ascii Dataset
          Type: dataset_ascii_type
          Transient: no
          Array Rank:  1

--------------------------------------------------------------------------------

=+=+=+=+=+=+=+=+=+=+=+=+=+=+=+=+=+=+=+=+=+=+=+=+=+=+=+=+=+=+=+=+=+=+=+=+=+=+=+=+

  Source Sink

--------------------------------------------------------------------------------
          Flow Condition:   injection
                  Region:   heatpump_inject0
--------------------------------------------------------------------------------

  Flow Condition: injection
    Synchronize time with update: no
    Time units: yr
    Length units: m
      Datum:

    Sub Condition: rate
      Type: scaled volumetric rate
      Gradient:
      Data:
        Dataset: Unnamed Ascii Dataset
          Type: dataset_ascii_type
          Is transient?: yes
          Number of times:      3
          Is cyclic?: no
          Buffer:
            Rank:  2
            Dims:    1   3
            Buffer Slice Size:   0
          Array Rank:  1

    Sub Condition: temperature
      Type: dirichlet
      Gradient:
      Data:
        Dataset: Unnamed Ascii Dataset
          Type: dataset_ascii_type
          Transient: no
          Array Rank:  1

--------------------------------------------------------------------------------

 Requested processors =    16

FLOW Time Stepper
                 acceleration: on
       acceleration threshold: 5
       number of ramp entries: 5
                ramp entry #1: 2.0000
                ramp entry #2: 2.0000
                ramp entry #3: 2.0000
                ramp entry #4: 2.0000
                ramp entry #5: 2.0000
                ramp entry #6: 1.8000
                ramp entry #7: 1.6000
                ramp entry #8: 1.4000
                ramp entry #9: 1.2000
               ramp entry #10: 1.0000
               ramp entry #11: 1.0000
               ramp entry #12: 1.0000
               ramp entry #13: 1.0000
      maximum number of steps: 999999
constant time steps threshold: 5
       maximum number of cuts: 16
             reduction factor: 5.000000E-01
        maximum growth factor: 2.000000E+00

FLOW Newton Solver
                         atol: 1.000000E-50
                         rtol: 1.000000E-03
                         stol: 1.000000E-08
                         dtol: 1.000000E+04
                      maxnorm: 1.000000E+20
                    inftolres: -9.990000E+02
                    inftolupd: 1.000000E+00
                 inftolrelupd: -9.990000E+02
                 inftolsclres: -9.990000E+02
                     max iter: 50
                     min iter: 1
                         maxf: 10000
                  matrix type: baij
         precond. matrix type: baij
               inexact newton: off
            print convergence: on
   print detailed convergence: off
          check infinity norm: on

FLOW Linear Solver
                       solver: bcgs
               preconditioner: bjacobi
                         atol: 1.000000E-50
                         rtol: 1.000000E-05
                         dtol: 1.000000E+04
            maximum iteration: 10000

== TH FLOW =====================================================================
 Step      1 Time=  1.00000E-05 Dt=  1.00000E-05 [y] snes_conv_reason:   11
  newton =   1 [       1] linear =    65 [        65] cuts =  0 [   0]
  --> max chng: dpmx=   9.6290E-02 dtmpmx=   5.5727E-08

== TH FLOW =====================================================================
 Step      2 Time=  3.00000E-05 Dt=  2.00000E-05 [y] snes_conv_reason:   11
  newton =   1 [       2] linear =   101 [       166] cuts =  0 [   0]
  --> max chng: dpmx=   4.4643E-03 dtmpmx=   1.1122E-07

== TH FLOW =====================================================================
 Step      3 Time=  7.00000E-05 Dt=  4.00000E-05 [y] snes_conv_reason:   11
  newton =   1 [       3] linear =   112 [       278] cuts =  0 [   0]
  --> max chng: dpmx=   1.0166E-04 dtmpmx=   2.2243E-07

== TH FLOW =====================================================================
 Step      4 Time=  1.50000E-04 Dt=  8.00000E-05 [y] snes_conv_reason:   11
  newton =   1 [       4] linear =   114 [       392] cuts =  0 [   0]
  --> max chng: dpmx=   1.6183E-06 dtmpmx=   4.4487E-07

== TH FLOW =====================================================================
 Step      5 Time=  3.10000E-04 Dt=  1.60000E-04 [y] snes_conv_reason:   11
  newton =   1 [       5] linear =   118 [       510] cuts =  0 [   0]
  --> max chng: dpmx=   3.3984E-06 dtmpmx=   8.8973E-07

== TH FLOW =====================================================================
 Step      6 Time=  6.30000E-04 Dt=  3.20000E-04 [y] snes_conv_reason:   11
  newton =   1 [       6] linear =   117 [       627] cuts =  0 [   0]
  --> max chng: dpmx=   7.1465E-06 dtmpmx=   1.7795E-06

== TH FLOW =====================================================================
 Step      7 Time=  1.27000E-03 Dt=  6.40000E-04 [y] snes_conv_reason:   11
  newton =   1 [       7] linear =   119 [       746] cuts =  0 [   0]
  --> max chng: dpmx=   1.5745E-05 dtmpmx=   3.5589E-06

== TH FLOW =====================================================================
 Step      8 Time=  2.55000E-03 Dt=  1.28000E-03 [y] snes_conv_reason:   11
  newton =   1 [       8] linear =   122 [       868] cuts =  0 [   0]
  --> max chng: dpmx=   3.7225E-05 dtmpmx=   7.1179E-06

== TH FLOW =====================================================================
 Step      9 Time=  5.11000E-03 Dt=  2.56000E-03 [y] snes_conv_reason:   11
  newton =   1 [       9] linear =   121 [       989] cuts =  0 [   0]
  --> max chng: dpmx=   9.7282E-05 dtmpmx=   1.4236E-05

== TH FLOW =====================================================================
 Step     10 Time=  1.02300E-02 Dt=  5.12000E-03 [y] snes_conv_reason:   11
  newton =   1 [      10] linear =   122 [      1111] cuts =  0 [   0]
  --> max chng: dpmx=   2.8434E-04 dtmpmx=   2.8471E-05

== TH FLOW =====================================================================
 Step     11 Time=  2.04700E-02 Dt=  1.02400E-02 [y] snes_conv_reason:   11
  newton =   1 [      11] linear =   116 [      1227] cuts =  0 [   0]
  --> max chng: dpmx=   9.1774E-04 dtmpmx=   5.6943E-05

== TH FLOW =====================================================================
 Step     12 Time=  4.09500E-02 Dt=  2.04800E-02 [y] snes_conv_reason:   11
  newton =   1 [      12] linear =   119 [      1346] cuts =  0 [   0]
  --> max chng: dpmx=   3.1538E-03 dtmpmx=   1.1389E-04

== TH FLOW =====================================================================
 Step     13 Time=  8.19100E-02 Dt=  4.09600E-02 [y] snes_conv_reason:   11
  newton =   1 [      13] linear =   124 [      1470] cuts =  0 [   0]
  --> max chng: dpmx=   1.1047E-02 dtmpmx=   2.2777E-04

== TH FLOW =====================================================================
 Step     14 Time=  1.00000E-01 Dt=  1.80900E-02 [y] snes_conv_reason:   11
  newton =   1 [      14] linear =   123 [      1593] cuts =  0 [   0]
  --> max chng: dpmx=   5.8093E-03 dtmpmx=   1.0060E-04

== TH FLOW =====================================================================
 Step     15 Time=  1.50000E-01 Dt=  5.00000E-02 [y] snes_conv_reason:   11
  newton =   1 [      15] linear =   119 [      1712] cuts =  0 [   0]
  --> max chng: dpmx=   2.2179E-02 dtmpmx=   2.7804E-04

== TH FLOW =====================================================================
 Step     16 Time=  2.00000E-01 Dt=  5.00000E-02 [y] snes_conv_reason:   11
  newton =   1 [      16] linear =   113 [      1825] cuts =  0 [   0]
  --> max chng: dpmx=   2.7703E-02 dtmpmx=   2.7804E-04

== TH FLOW =====================================================================
 Step     17 Time=  2.50000E-01 Dt=  5.00000E-02 [y] snes_conv_reason:   11
  newton =   2 [      18] linear =   243 [      2068] cuts =  0 [   0]
  --> max chng: dpmx=   5.1806E+01 dtmpmx=   1.0190E+00

== TH FLOW =====================================================================
 Step     18 Time=  3.00000E-01 Dt=  5.00000E-02 [y] snes_conv_reason:   11
  newton =   2 [      20] linear =   247 [      2315] cuts =  0 [   0]
  --> max chng: dpmx=   1.5020E+00 dtmpmx=   3.8239E-01

== TH FLOW =====================================================================
 Step     19 Time=  3.50000E-01 Dt=  5.00000E-02 [y] snes_conv_reason:   11
  newton =   2 [      22] linear =   241 [      2556] cuts =  0 [   0]
  --> max chng: dpmx=   1.3666E+00 dtmpmx=   2.7601E-01

== TH FLOW =====================================================================
 Step     20 Time=  4.00000E-01 Dt=  5.00000E-02 [y] snes_conv_reason:   11
  newton =   2 [      24] linear =   240 [      2796] cuts =  0 [   0]
  --> max chng: dpmx=   1.2451E+00 dtmpmx=   2.2414E-01

== TH FLOW =====================================================================
 Step     21 Time=  4.50000E-01 Dt=  5.00000E-02 [y] snes_conv_reason:   11
  newton =   2 [      26] linear =   223 [      3019] cuts =  0 [   0]
  --> max chng: dpmx=   1.1311E+00 dtmpmx=   1.9176E-01

== TH FLOW =====================================================================
 Step     22 Time=  5.00000E-01 Dt=  5.00000E-02 [y] snes_conv_reason:    3
  newton =   1 [      27] linear =   113 [      3132] cuts =  0 [   0]
  --> max chng: dpmx=   1.0219E+00 dtmpmx=   1.6907E-01

== TH FLOW =====================================================================
 Step     23 Time=  5.50000E-01 Dt=  5.00000E-02 [y] snes_conv_reason:   11
  newton =   1 [      28] linear =   107 [      3239] cuts =  0 [   0]
  --> max chng: dpmx=   9.1772E-01 dtmpmx=   1.5192E-01

== TH FLOW =====================================================================
 Step     24 Time=  6.00000E-01 Dt=  5.00000E-02 [y] snes_conv_reason:   11
  newton =   1 [      29] linear =   112 [      3351] cuts =  0 [   0]
  --> max chng: dpmx=   8.1570E-01 dtmpmx=   1.3835E-01

== TH FLOW =====================================================================
 Step     25 Time=  6.50000E-01 Dt=  5.00000E-02 [y] snes_conv_reason:   11
  newton =   1 [      30] linear =   114 [      3465] cuts =  0 [   0]
  --> max chng: dpmx=   7.1718E-01 dtmpmx=   1.2724E-01

== TH FLOW =====================================================================
 Step     26 Time=  7.00000E-01 Dt=  5.00000E-02 [y] snes_conv_reason:   11
  newton =   1 [      31] linear =   109 [      3574] cuts =  0 [   0]
  --> max chng: dpmx=   6.2046E-01 dtmpmx=   1.1792E-01

== TH FLOW =====================================================================
 Step     27 Time=  7.50000E-01 Dt=  5.00000E-02 [y] snes_conv_reason:   11
  newton =   1 [      32] linear =   102 [      3676] cuts =  0 [   0]
  --> max chng: dpmx=   6.3204E-01 dtmpmx=   1.0997E-01

== TH FLOW =====================================================================
 Step     28 Time=  8.00000E-01 Dt=  5.00000E-02 [y] snes_conv_reason:   11
  newton =   1 [      33] linear =   109 [      3785] cuts =  0 [   0]
  --> max chng: dpmx=   6.8821E-01 dtmpmx=   1.0306E-01

== TH FLOW =====================================================================
 Step     29 Time=  8.50000E-01 Dt=  5.00000E-02 [y] snes_conv_reason:   11
  newton =   1 [      34] linear =   110 [      3895] cuts =  0 [   0]
  --> max chng: dpmx=   7.4477E-01 dtmpmx=   9.7003E-02

== TH FLOW =====================================================================
 Step     30 Time=  9.00000E-01 Dt=  5.00000E-02 [y] snes_conv_reason:   11
  newton =   1 [      35] linear =   109 [      4004] cuts =  0 [   0]
  --> max chng: dpmx=   8.0093E-01 dtmpmx=   9.1626E-02

== TH FLOW =====================================================================
 Step     31 Time=  9.50000E-01 Dt=  5.00000E-02 [y] snes_conv_reason:   11
  newton =   1 [      36] linear =   105 [      4109] cuts =  0 [   0]
  --> max chng: dpmx=   8.5478E-01 dtmpmx=   8.6817E-02

== TH FLOW =====================================================================
 Step     32 Time=  1.00000E+00 Dt=  5.00000E-02 [y] snes_conv_reason:   11
  newton =   1 [      37] linear =   106 [      4215] cuts =  0 [   0]
  --> max chng: dpmx=   9.0495E-01 dtmpmx=   8.2483E-02

== TH FLOW =====================================================================
 Step     33 Time=  1.05000E+00 Dt=  5.00000E-02 [y] snes_conv_reason:   11
  newton =   1 [      38] linear =   107 [      4322] cuts =  0 [   0]
  --> max chng: dpmx=   9.4911E-01 dtmpmx=   7.8553E-02

== TH FLOW =====================================================================
 Step     34 Time=  1.10000E+00 Dt=  5.00000E-02 [y] snes_conv_reason:   11
  newton =   1 [      39] linear =   109 [      4431] cuts =  0 [   0]
  --> max chng: dpmx=   9.8394E-01 dtmpmx=   7.4970E-02

== TH FLOW =====================================================================
 Step     35 Time=  1.15000E+00 Dt=  5.00000E-02 [y] snes_conv_reason:    3
  newton =   1 [      40] linear =   111 [      4542] cuts =  0 [   0]
  --> max chng: dpmx=   1.0068E+00 dtmpmx=   7.1687E-02

== TH FLOW =====================================================================
 Step     36 Time=  1.20000E+00 Dt=  5.00000E-02 [y] snes_conv_reason:    3
  newton =   1 [      41] linear =   109 [      4651] cuts =  0 [   0]
  --> max chng: dpmx=   1.0145E+00 dtmpmx=   6.8667E-02

== TH FLOW =====================================================================
 Step     37 Time=  1.25000E+00 Dt=  5.00000E-02 [y] snes_conv_reason:    3
  newton =   1 [      42] linear =   108 [      4759] cuts =  0 [   0]
  --> max chng: dpmx=   1.0043E+00 dtmpmx=   6.5878E-02

== TH FLOW =====================================================================
 Step     38 Time=  1.30000E+00 Dt=  5.00000E-02 [y] snes_conv_reason:   11
  newton =   1 [      43] linear =   106 [      4865] cuts =  0 [   0]
  --> max chng: dpmx=   9.7526E-01 dtmpmx=   6.3294E-02

== TH FLOW =====================================================================
 Step     39 Time=  1.35000E+00 Dt=  5.00000E-02 [y] snes_conv_reason:   11
  newton =   1 [      44] linear =   105 [      4970] cuts =  0 [   0]
  --> max chng: dpmx=   9.2703E-01 dtmpmx=   6.0892E-02

== TH FLOW =====================================================================
 Step     40 Time=  1.40000E+00 Dt=  5.00000E-02 [y] snes_conv_reason:   11
  newton =   1 [      45] linear =   111 [      5081] cuts =  0 [   0]
  --> max chng: dpmx=   8.6158E-01 dtmpmx=   5.8653E-02

== TH FLOW =====================================================================
 Step     41 Time=  1.45000E+00 Dt=  5.00000E-02 [y] snes_conv_reason:   11
  newton =   1 [      46] linear =   113 [      5194] cuts =  0 [   0]
  --> max chng: dpmx=   7.8184E-01 dtmpmx=   5.6561E-02

== TH FLOW =====================================================================
 Step     42 Time=  1.50000E+00 Dt=  5.00000E-02 [y] snes_conv_reason:   11
  newton =   1 [      47] linear =   113 [      5307] cuts =  0 [   0]
  --> max chng: dpmx=   6.9228E-01 dtmpmx=   5.4602E-02

== TH FLOW =====================================================================
 Step     43 Time=  1.55000E+00 Dt=  5.00000E-02 [y] snes_conv_reason:   11
  newton =   1 [      48] linear =   112 [      5419] cuts =  0 [   0]
  --> max chng: dpmx=   5.9776E-01 dtmpmx=   5.2674E-02

== TH FLOW =====================================================================
 Step     44 Time=  1.60000E+00 Dt=  5.00000E-02 [y] snes_conv_reason:   11
  newton =   1 [      49] linear =   115 [      5534] cuts =  0 [   0]
  --> max chng: dpmx=   5.0338E-01 dtmpmx=   4.9594E-02

== TH FLOW =====================================================================
 Step     45 Time=  1.65000E+00 Dt=  5.00000E-02 [y] snes_conv_reason:   11
  newton =   1 [      50] linear =   113 [      5647] cuts =  0 [   0]
  --> max chng: dpmx=   4.1330E-01 dtmpmx=   4.5183E-02

== TH FLOW =====================================================================
 Step     46 Time=  1.70000E+00 Dt=  5.00000E-02 [y] snes_conv_reason:   11
  newton =   1 [      51] linear =   115 [      5762] cuts =  0 [   0]
  --> max chng: dpmx=   3.3099E-01 dtmpmx=   3.9828E-02

== TH FLOW =====================================================================
 Step     47 Time=  1.75000E+00 Dt=  5.00000E-02 [y] snes_conv_reason:   11
  newton =   1 [      52] linear =   119 [      5881] cuts =  0 [   0]
  --> max chng: dpmx=   2.5864E-01 dtmpmx=   3.4016E-02

== TH FLOW =====================================================================
 Step     48 Time=  1.80000E+00 Dt=  5.00000E-02 [y] snes_conv_reason:   11
  newton =   1 [      53] linear =   119 [      6000] cuts =  0 [   0]
  --> max chng: dpmx=   1.9719E-01 dtmpmx=   2.8186E-02

== TH FLOW =====================================================================
 Step     49 Time=  1.85000E+00 Dt=  5.00000E-02 [y] snes_conv_reason:   11
  newton =   1 [      54] linear =   119 [      6119] cuts =  0 [   0]
  --> max chng: dpmx=   1.4684E-01 dtmpmx=   2.2687E-02

== TH FLOW =====================================================================
 Step     50 Time=  1.90000E+00 Dt=  5.00000E-02 [y] snes_conv_reason:   11
  newton =   1 [      55] linear =   114 [      6233] cuts =  0 [   0]
  --> max chng: dpmx=   1.0682E-01 dtmpmx=   1.7760E-02

== TH FLOW =====================================================================
 Step     51 Time=  1.95000E+00 Dt=  5.00000E-02 [y] snes_conv_reason:   11
  newton =   1 [      56] linear =   117 [      6350] cuts =  0 [   0]
  --> max chng: dpmx=   7.5937E-02 dtmpmx=   1.3536E-02

== TH FLOW =====================================================================
 Step     52 Time=  2.00000E+00 Dt=  5.00000E-02 [y] snes_conv_reason:   11
  newton =   1 [      57] linear =   119 [      6469] cuts =  0 [   0]
  --> max chng: dpmx=   5.2749E-02 dtmpmx=   1.0053E-02

== TH FLOW =====================================================================
 Step     53 Time=  2.05000E+00 Dt=  5.00000E-02 [y] snes_conv_reason:   11
  newton =   1 [      58] linear =   119 [      6588] cuts =  0 [   0]
  --> max chng: dpmx=   3.5855E-02 dtmpmx=   7.2809E-03

== TH FLOW =====================================================================
 Step     54 Time=  2.10000E+00 Dt=  5.00000E-02 [y] snes_conv_reason:   11
  newton =   1 [      59] linear =   122 [      6710] cuts =  0 [   0]
  --> max chng: dpmx=   2.3823E-02 dtmpmx=   5.1461E-03

== TH FLOW =====================================================================
 Step     55 Time=  2.15000E+00 Dt=  5.00000E-02 [y] snes_conv_reason:   11
  newton =   1 [      60] linear =   120 [      6830] cuts =  0 [   0]
  --> max chng: dpmx=   1.5466E-02 dtmpmx=   3.5511E-03

== TH FLOW =====================================================================
 Step     56 Time=  2.20000E+00 Dt=  5.00000E-02 [y] snes_conv_reason:   11
  newton =   1 [      61] linear =   122 [      6952] cuts =  0 [   0]
  --> max chng: dpmx=   9.8083E-03 dtmpmx=   2.3928E-03

== TH FLOW =====================================================================
 Step     57 Time=  2.25000E+00 Dt=  5.00000E-02 [y] snes_conv_reason:   11
  newton =   1 [      62] linear =   122 [      7074] cuts =  0 [   0]
  --> max chng: dpmx=   6.0591E-03 dtmpmx=   1.5742E-03

== TH FLOW =====================================================================
 Step     58 Time=  2.30000E+00 Dt=  5.00000E-02 [y] snes_conv_reason:   11
  newton =   1 [      63] linear =   120 [      7194] cuts =  0 [   0]
  --> max chng: dpmx=   3.6395E-03 dtmpmx=   1.0102E-03

== TH FLOW =====================================================================
 Step     59 Time=  2.35000E+00 Dt=  5.00000E-02 [y] snes_conv_reason:   11
  newton =   1 [      64] linear =   124 [      7318] cuts =  0 [   0]
  --> max chng: dpmx=   2.1113E-03 dtmpmx=   6.3128E-04

== TH FLOW =====================================================================
 Step     60 Time=  2.40000E+00 Dt=  5.00000E-02 [y] snes_conv_reason:   11
  newton =   1 [      65] linear =   119 [      7437] cuts =  0 [   0]
  --> max chng: dpmx=   1.1733E-03 dtmpmx=   3.8273E-04

== TH FLOW =====================================================================
 Step     61 Time=  2.45000E+00 Dt=  5.00000E-02 [y] snes_conv_reason:   11
  newton =   1 [      66] linear =   123 [      7560] cuts =  0 [   0]
  --> max chng: dpmx=   6.1546E-04 dtmpmx=   2.2356E-04

== TH FLOW =====================================================================
 Step     62 Time=  2.50000E+00 Dt=  5.00000E-02 [y] snes_conv_reason:   11
  newton =   1 [      67] linear =   124 [      7684] cuts =  0 [   0]
  --> max chng: dpmx=   2.9692E-04 dtmpmx=   1.2408E-04

== TH FLOW =====================================================================
 Step     63 Time=  2.55000E+00 Dt=  5.00000E-02 [y] snes_conv_reason:   11
  newton =   1 [      68] linear =   119 [      7803] cuts =  0 [   0]
  --> max chng: dpmx=   1.8038E-04 dtmpmx=   6.3491E-05

== TH FLOW =====================================================================
 Step     64 Time=  2.60000E+00 Dt=  5.00000E-02 [y] snes_conv_reason:   11
  newton =   1 [      69] linear =   118 [      7921] cuts =  0 [   0]
  --> max chng: dpmx=   2.2085E-04 dtmpmx=   2.7664E-05

== TH FLOW =====================================================================
 Step     65 Time=  2.65000E+00 Dt=  5.00000E-02 [y] snes_conv_reason:   11
  newton =   1 [      70] linear =   117 [      8038] cuts =  0 [   0]
  --> max chng: dpmx=   2.3062E-04 dtmpmx=   1.4788E-05

== TH FLOW =====================================================================
 Step     66 Time=  2.70000E+00 Dt=  5.00000E-02 [y] snes_conv_reason:   11
  newton =   1 [      71] linear =   110 [      8148] cuts =  0 [   0]
  --> max chng: dpmx=   2.2169E-04 dtmpmx=   1.4035E-05

== TH FLOW =====================================================================
 Step     67 Time=  2.75000E+00 Dt=  5.00000E-02 [y] snes_conv_reason:   11
  newton =   1 [      72] linear =   111 [      8259] cuts =  0 [   0]
  --> max chng: dpmx=   2.0284E-04 dtmpmx=   1.3320E-05

== TH FLOW =====================================================================
 Step     68 Time=  2.80000E+00 Dt=  5.00000E-02 [y] snes_conv_reason:   11
  newton =   1 [      73] linear =   105 [      8364] cuts =  0 [   0]
  --> max chng: dpmx=   1.7951E-04 dtmpmx=   1.2634E-05

== TH FLOW =====================================================================
 Step     69 Time=  2.85000E+00 Dt=  5.00000E-02 [y] snes_conv_reason:   11
  newton =   1 [      74] linear =   112 [      8476] cuts =  0 [   0]
  --> max chng: dpmx=   1.5508E-04 dtmpmx=   1.1979E-05

== TH FLOW =====================================================================
 Step     70 Time=  2.90000E+00 Dt=  5.00000E-02 [y] snes_conv_reason:   11
  newton =   1 [      75] linear =   119 [      8595] cuts =  0 [   0]
  --> max chng: dpmx=   1.3139E-04 dtmpmx=   1.1259E-05

== TH FLOW =====================================================================
 Step     71 Time=  2.95000E+00 Dt=  5.00000E-02 [y] snes_conv_reason:   11
  newton =   1 [      76] linear =   116 [      8711] cuts =  0 [   0]
  --> max chng: dpmx=   1.0958E-04 dtmpmx=   1.0199E-05

== TH FLOW =====================================================================
 Step     72 Time=  3.00000E+00 Dt=  5.00000E-02 [y] snes_conv_reason:   11
  newton =   1 [      77] linear =   116 [      8827] cuts =  0 [   0]
  --> max chng: dpmx=   9.0047E-05 dtmpmx=   8.9465E-06

== TH FLOW =====================================================================
 Step     73 Time=  3.05000E+00 Dt=  5.00000E-02 [y] snes_conv_reason:   11
  newton =   1 [      78] linear =   118 [      8945] cuts =  0 [   0]
  --> max chng: dpmx=   7.3039E-05 dtmpmx=   7.6649E-06

== TH FLOW =====================================================================
 Step     74 Time=  3.10000E+00 Dt=  5.00000E-02 [y] snes_conv_reason:   11
  newton =   1 [      79] linear =   119 [      9064] cuts =  0 [   0]
  --> max chng: dpmx=   5.8493E-05 dtmpmx=   6.4441E-06

== TH FLOW =====================================================================
 Step     75 Time=  3.15000E+00 Dt=  5.00000E-02 [y] snes_conv_reason:   11
  newton =   1 [      80] linear =   119 [      9183] cuts =  0 [   0]
  --> max chng: dpmx=   4.6269E-05 dtmpmx=   5.3306E-06

== TH FLOW =====================================================================
 Step     76 Time=  3.20000E+00 Dt=  5.00000E-02 [y] snes_conv_reason:   11
  newton =   1 [      81] linear =   119 [      9302] cuts =  0 [   0]
  --> max chng: dpmx=   3.6161E-05 dtmpmx=   4.3451E-06

== TH FLOW =====================================================================
 Step     77 Time=  3.25000E+00 Dt=  5.00000E-02 [y] snes_conv_reason:   11
  newton =   1 [      82] linear =   118 [      9420] cuts =  0 [   0]
  --> max chng: dpmx=   2.7923E-05 dtmpmx=   3.4934E-06

== TH FLOW =====================================================================
 Step     78 Time=  3.30000E+00 Dt=  5.00000E-02 [y] snes_conv_reason:   11
  newton =   1 [      83] linear =   118 [      9538] cuts =  0 [   0]
  --> max chng: dpmx=   2.1307E-05 dtmpmx=   2.7716E-06

== TH FLOW =====================================================================
 Step     79 Time=  3.35000E+00 Dt=  5.00000E-02 [y] snes_conv_reason:   11
  newton =   1 [      84] linear =   119 [      9657] cuts =  0 [   0]
  --> max chng: dpmx=   1.6061E-05 dtmpmx=   2.1707E-06

== TH FLOW =====================================================================
 Step     80 Time=  3.40000E+00 Dt=  5.00000E-02 [y] snes_conv_reason:   11
  newton =   1 [      85] linear =   119 [      9776] cuts =  0 [   0]
  --> max chng: dpmx=   1.1959E-05 dtmpmx=   1.6784E-06

== TH FLOW =====================================================================
 Step     81 Time=  3.45000E+00 Dt=  5.00000E-02 [y] snes_conv_reason:   11
  newton =   1 [      86] linear =   118 [      9894] cuts =  0 [   0]
  --> max chng: dpmx=   8.7960E-06 dtmpmx=   1.2813E-06

== TH FLOW =====================================================================
 Step     82 Time=  3.50000E+00 Dt=  5.00000E-02 [y] snes_conv_reason:   11
  newton =   1 [      87] linear =   118 [     10012] cuts =  0 [   0]
  --> max chng: dpmx=   6.3875E-06 dtmpmx=   9.6569E-07

== TH FLOW =====================================================================
 Step     83 Time=  3.55000E+00 Dt=  5.00000E-02 [y] snes_conv_reason:   11
  newton =   1 [      88] linear =   121 [     10133] cuts =  0 [   0]
  --> max chng: dpmx=   4.5768E-06 dtmpmx=   7.1843E-07

== TH FLOW =====================================================================
 Step     84 Time=  3.60000E+00 Dt=  5.00000E-02 [y] snes_conv_reason:   11
  newton =   1 [      89] linear =   118 [     10251] cuts =  0 [   0]
  --> max chng: dpmx=   3.2349E-06 dtmpmx=   5.2745E-07

== TH FLOW =====================================================================
 Step     85 Time=  3.65000E+00 Dt=  5.00000E-02 [y] snes_conv_reason:   11
  newton =   1 [      90] linear =   115 [     10366] cuts =  0 [   0]
  --> max chng: dpmx=   2.2525E-06 dtmpmx=   3.8208E-07

== TH FLOW =====================================================================
 Step     86 Time=  3.70000E+00 Dt=  5.00000E-02 [y] snes_conv_reason:   11
  newton =   1 [      91] linear =   120 [     10486] cuts =  0 [   0]
  --> max chng: dpmx=   1.5439E-06 dtmpmx=   2.7284E-07

== TH FLOW =====================================================================
 Step     87 Time=  3.75000E+00 Dt=  5.00000E-02 [y] snes_conv_reason:   11
  newton =   1 [      92] linear =   120 [     10606] cuts =  0 [   0]
  --> max chng: dpmx=   1.0402E-06 dtmpmx=   1.9196E-07

== TH FLOW =====================================================================
 Step     88 Time=  3.80000E+00 Dt=  5.00000E-02 [y] snes_conv_reason:   11
  newton =   1 [      93] linear =   122 [     10728] cuts =  0 [   0]
  --> max chng: dpmx=   6.8662E-07 dtmpmx=   1.3288E-07

== TH FLOW =====================================================================
 Step     89 Time=  3.85000E+00 Dt=  5.00000E-02 [y] snes_conv_reason:   11
  newton =   1 [      94] linear =   121 [     10849] cuts =  0 [   0]
  --> max chng: dpmx=   4.4296E-07 dtmpmx=   9.0351E-08

== TH FLOW =====================================================================
 Step     90 Time=  3.90000E+00 Dt=  5.00000E-02 [y] snes_conv_reason:   11
  newton =   1 [      95] linear =   120 [     10969] cuts =  0 [   0]
  --> max chng: dpmx=   2.7765E-07 dtmpmx=   6.0241E-08

== TH FLOW =====================================================================
 Step     91 Time=  3.95000E+00 Dt=  5.00000E-02 [y] snes_conv_reason:   11
  newton =   1 [      96] linear =   126 [     11095] cuts =  0 [   0]
  --> max chng: dpmx=   1.6799E-07 dtmpmx=   3.9125E-08

== TH FLOW =====================================================================
 Step     92 Time=  4.00000E+00 Dt=  5.00000E-02 [y] snes_conv_reason:   11
  newton =   1 [      97] linear =   124 [     11219] cuts =  0 [   0]
  --> max chng: dpmx=   9.6974E-08 dtmpmx=   2.4675E-08

== TH FLOW =====================================================================
 Step     93 Time=  4.05000E+00 Dt=  5.00000E-02 [y] snes_conv_reason:   11
  newton =   1 [      98] linear =   125 [     11344] cuts =  0 [   0]
  --> max chng: dpmx=   5.2387E-08 dtmpmx=   1.4869E-08

== TH FLOW =====================================================================
 Step     94 Time=  4.10000E+00 Dt=  5.00000E-02 [y] snes_conv_reason:   11
  newton =   1 [      99] linear =   125 [     11469] cuts =  0 [   0]
  --> max chng: dpmx=   2.6077E-08 dtmpmx=   8.4899E-09

== TH FLOW =====================================================================
 Step     95 Time=  4.15000E+00 Dt=  5.00000E-02 [y] snes_conv_reason:   11
  newton =   1 [     100] linear =   120 [     11589] cuts =  0 [   0]
  --> max chng: dpmx=   1.7579E-08 dtmpmx=   4.3453E-09

== TH FLOW =====================================================================
 Step     96 Time=  4.20000E+00 Dt=  5.00000E-02 [y] snes_conv_reason:   11
  newton =   1 [     101] linear =   121 [     11710] cuts =  0 [   0]
  --> max chng: dpmx=   2.1188E-08 dtmpmx=   1.7689E-09

== TH FLOW =====================================================================
 Step     97 Time=  4.25000E+00 Dt=  5.00000E-02 [y] snes_conv_reason:   11
  newton =   1 [     102] linear =   120 [     11830] cuts =  0 [   0]
  --> max chng: dpmx=   2.2002E-08 dtmpmx=   1.5390E-09

== TH FLOW =====================================================================
 Step     98 Time=  4.30000E+00 Dt=  5.00000E-02 [y] snes_conv_reason:   11
  newton =   1 [     103] linear =   115 [     11945] cuts =  0 [   0]
  --> max chng: dpmx=   2.0838E-08 dtmpmx=   1.4445E-09

== TH FLOW =====================================================================
 Step     99 Time=  4.35000E+00 Dt=  5.00000E-02 [y] snes_conv_reason:   11
  newton =   1 [     104] linear =   115 [     12060] cuts =  0 [   0]
  --> max chng: dpmx=   1.8743E-08 dtmpmx=   1.3402E-09

== TH FLOW =====================================================================
 Step    100 Time=  4.40000E+00 Dt=  5.00000E-02 [y] snes_conv_reason:   11
  newton =   1 [     105] linear =   113 [     12173] cuts =  0 [   0]
  --> max chng: dpmx=   1.6298E-08 dtmpmx=   1.2729E-09

== TH FLOW =====================================================================
 Step    101 Time=  4.45000E+00 Dt=  5.00000E-02 [y] snes_conv_reason:   11
  newton =   1 [     106] linear =   110 [     12283] cuts =  0 [   0]
  --> max chng: dpmx=   1.3737E-08 dtmpmx=   1.2172E-09

== TH FLOW =====================================================================
 Step    102 Time=  4.50000E+00 Dt=  5.00000E-02 [y] snes_conv_reason:   11
  newton =   1 [     107] linear =   120 [     12403] cuts =  0 [   0]
  --> max chng: dpmx=   1.1409E-08 dtmpmx=   1.0975E-09

== TH FLOW =====================================================================
 Step    103 Time=  4.55000E+00 Dt=  5.00000E-02 [y] snes_conv_reason:   11
  newton =   1 [     108] linear =   118 [     12521] cuts =  0 [   0]
  --> max chng: dpmx=   9.3132E-09 dtmpmx=   9.5818E-10

== TH FLOW =====================================================================
 Step    104 Time=  4.60000E+00 Dt=  5.00000E-02 [y] snes_conv_reason:   11
  newton =   1 [     109] linear =   117 [     12638] cuts =  0 [   0]
  --> max chng: dpmx=   7.4506E-09 dtmpmx=   8.3571E-10

== TH FLOW =====================================================================
 Step    105 Time=  4.65000E+00 Dt=  5.00000E-02 [y] snes_conv_reason:   11
  newton =   1 [     110] linear =   119 [     12757] cuts =  0 [   0]
  --> max chng: dpmx=   5.9372E-09 dtmpmx=   6.9781E-10

== TH FLOW =====================================================================
 Step    106 Time=  4.70000E+00 Dt=  5.00000E-02 [y] snes_conv_reason:   11
  newton =   1 [     111] linear =   116 [     12873] cuts =  0 [   0]
  --> max chng: dpmx=   4.6566E-09 dtmpmx=   5.8334E-10

== TH FLOW =====================================================================
 Step    107 Time=  4.75000E+00 Dt=  5.00000E-02 [y] snes_conv_reason:   11
  newton =   1 [     112] linear =   119 [     12992] cuts =  0 [   0]
  --> max chng: dpmx=   3.7253E-09 dtmpmx=   4.6860E-10

== TH FLOW =====================================================================
 Step    108 Time=  4.80000E+00 Dt=  5.00000E-02 [y] snes_conv_reason:   11
  newton =   1 [     113] linear =   119 [     13111] cuts =  0 [   0]
  --> max chng: dpmx=   2.9104E-09 dtmpmx=   3.8341E-10

== TH FLOW =====================================================================
 Step    109 Time=  4.85000E+00 Dt=  5.00000E-02 [y] snes_conv_reason:   11
  newton =   1 [     114] linear =   113 [     13224] cuts =  0 [   0]
  --> max chng: dpmx=   2.2119E-09 dtmpmx=   3.0203E-10

== TH FLOW =====================================================================
 Step    110 Time=  4.90000E+00 Dt=  5.00000E-02 [y] snes_conv_reason:   11
  newton =   1 [     115] linear =   111 [     13335] cuts =  0 [   0]
  --> max chng: dpmx=   1.7462E-09 dtmpmx=   2.3019E-10

== TH FLOW =====================================================================
 Step    111 Time=  4.95000E+00 Dt=  5.00000E-02 [y] snes_conv_reason:   11
  newton =   1 [     116] linear =   126 [     13461] cuts =  0 [   0]
  --> max chng: dpmx=   1.1642E-09 dtmpmx=   1.9668E-10

== TH FLOW =====================================================================
 Step    112 Time=  5.00000E+00 Dt=  5.00000E-02 [y] snes_conv_reason:   11
  newton =   1 [     117] linear =   110 [     13571] cuts =  0 [   0]
  --> max chng: dpmx=   1.0477E-09 dtmpmx=   1.3878E-10

== TH FLOW =====================================================================
 Step    113 Time=  5.05000E+00 Dt=  5.00000E-02 [y] snes_conv_reason:   11
  newton =   1 [     118] linear =   111 [     13682] cuts =  0 [   0]
  --> max chng: dpmx=   8.1491E-10 dtmpmx=   1.2204E-10

== TH FLOW =====================================================================
 Step    114 Time=  5.10000E+00 Dt=  5.00000E-02 [y] snes_conv_reason:   11
  newton =   1 [     119] linear =   114 [     13796] cuts =  0 [   0]
  --> max chng: dpmx=   8.1491E-10 dtmpmx=   1.0449E-10

== TH FLOW =====================================================================
 Step    115 Time=  5.15000E+00 Dt=  5.00000E-02 [y] snes_conv_reason:   11
  newton =   1 [     120] linear =   126 [     13922] cuts =  0 [   0]
  --> max chng: dpmx=   4.6566E-10 dtmpmx=   9.3889E-11

== TH FLOW =====================================================================
 Step    116 Time=  5.20000E+00 Dt=  5.00000E-02 [y] snes_conv_reason:   11
  newton =   1 [     121] linear =   120 [     14042] cuts =  0 [   0]
  --> max chng: dpmx=   4.6566E-10 dtmpmx=   9.4365E-11

== TH FLOW =====================================================================
 Step    117 Time=  5.25000E+00 Dt=  5.00000E-02 [y] snes_conv_reason:   11
  newton =   1 [     122] linear =   114 [     14156] cuts =  0 [   0]
  --> max chng: dpmx=   3.4925E-10 dtmpmx=   1.2270E-10

== TH FLOW =====================================================================
 Step    118 Time=  5.30000E+00 Dt=  5.00000E-02 [y] snes_conv_reason:   11
  newton =   1 [     123] linear =   120 [     14276] cuts =  0 [   0]
  --> max chng: dpmx=   3.4925E-10 dtmpmx=   9.3209E-11

== TH FLOW =====================================================================
 Step    119 Time=  5.35000E+00 Dt=  5.00000E-02 [y] snes_conv_reason:   11
  newton =   1 [     124] linear =    97 [     14373] cuts =  0 [   0]
  --> max chng: dpmx=   3.4925E-10 dtmpmx=   1.0015E-10

== TH FLOW =====================================================================
 Step    120 Time=  5.40000E+00 Dt=  5.00000E-02 [y] snes_conv_reason:   11
  newton =   1 [     125] linear =   114 [     14487] cuts =  0 [   0]
  --> max chng: dpmx=   3.4925E-10 dtmpmx=   1.0089E-10

== TH FLOW =====================================================================
 Step    121 Time=  5.45000E+00 Dt=  5.00000E-02 [y] snes_conv_reason:   11
  newton =   1 [     126] linear =   101 [     14588] cuts =  0 [   0]
  --> max chng: dpmx=   3.4925E-10 dtmpmx=   1.1062E-10

== TH FLOW =====================================================================
 Step    122 Time=  5.50000E+00 Dt=  5.00000E-02 [y] snes_conv_reason:   11
  newton =   1 [     127] linear =   115 [     14703] cuts =  0 [   0]
  --> max chng: dpmx=   3.4925E-10 dtmpmx=   9.0209E-11

== TH FLOW =====================================================================
 Step    123 Time=  5.55000E+00 Dt=  5.00000E-02 [y] snes_conv_reason:   11
  newton =   1 [     128] linear =   115 [     14818] cuts =  0 [   0]
  --> max chng: dpmx=   3.4925E-10 dtmpmx=   1.0232E-10

== TH FLOW =====================================================================
 Step    124 Time=  5.60000E+00 Dt=  5.00000E-02 [y] snes_conv_reason:   11
  newton =   1 [     129] linear =   117 [     14935] cuts =  0 [   0]
  --> max chng: dpmx=   2.3283E-10 dtmpmx=   9.4762E-11

== TH FLOW =====================================================================
 Step    125 Time=  5.65000E+00 Dt=  5.00000E-02 [y] snes_conv_reason:   11
  newton =   1 [     130] linear =    97 [     15032] cuts =  0 [   0]
  --> max chng: dpmx=   2.3283E-10 dtmpmx=   1.0022E-10

== TH FLOW =====================================================================
 Step    126 Time=  5.70000E+00 Dt=  5.00000E-02 [y] snes_conv_reason:   11
  newton =   1 [     131] linear =   108 [     15140] cuts =  0 [   0]
  --> max chng: dpmx=   2.3283E-10 dtmpmx=   9.5572E-11

== TH FLOW =====================================================================
 Step    127 Time=  5.75000E+00 Dt=  5.00000E-02 [y] snes_conv_reason:   11
  newton =   1 [     132] linear =   111 [     15251] cuts =  0 [   0]
  --> max chng: dpmx=   2.3283E-10 dtmpmx=   1.0981E-10

== TH FLOW =====================================================================
 Step    128 Time=  5.80000E+00 Dt=  5.00000E-02 [y] snes_conv_reason:   11
  newton =   1 [     133] linear =    95 [     15346] cuts =  0 [   0]
  --> max chng: dpmx=   2.3283E-10 dtmpmx=   9.8463E-11

== TH FLOW =====================================================================
 Step    129 Time=  5.85000E+00 Dt=  5.00000E-02 [y] snes_conv_reason:   11
  newton =   1 [     134] linear =   123 [     15469] cuts =  0 [   0]
  --> max chng: dpmx=   3.4925E-10 dtmpmx=   1.0004E-10

== TH FLOW =====================================================================
 Step    130 Time=  5.90000E+00 Dt=  5.00000E-02 [y] snes_conv_reason:   11
  newton =   1 [     135] linear =   108 [     15577] cuts =  0 [   0]
  --> max chng: dpmx=   2.3283E-10 dtmpmx=   1.1404E-10

== TH FLOW =====================================================================
 Step    131 Time=  5.95000E+00 Dt=  5.00000E-02 [y] snes_conv_reason:   11
  newton =   1 [     136] linear =   106 [     15683] cuts =  0 [   0]
  --> max chng: dpmx=   3.4925E-10 dtmpmx=   1.0325E-10

== TH FLOW =====================================================================
 Step    132 Time=  6.00000E+00 Dt=  5.00000E-02 [y] snes_conv_reason:   11
  newton =   1 [     137] linear =    96 [     15779] cuts =  0 [   0]
  --> max chng: dpmx=   3.4925E-10 dtmpmx=   1.0738E-10

== TH FLOW =====================================================================
 Step    133 Time=  6.05000E+00 Dt=  5.00000E-02 [y] snes_conv_reason:   11
  newton =   1 [     138] linear =    99 [     15878] cuts =  0 [   0]
  --> max chng: dpmx=   3.4925E-10 dtmpmx=   1.1200E-10

== TH FLOW =====================================================================
 Step    134 Time=  6.10000E+00 Dt=  5.00000E-02 [y] snes_conv_reason:   11
  newton =   1 [     139] linear =    96 [     15974] cuts =  0 [   0]
  --> max chng: dpmx=   2.3283E-10 dtmpmx=   1.0580E-10

== TH FLOW =====================================================================
 Step    135 Time=  6.15000E+00 Dt=  5.00000E-02 [y] snes_conv_reason:   11
  newton =   1 [     140] linear =    80 [     16054] cuts =  0 [   0]
  --> max chng: dpmx=   3.4925E-10 dtmpmx=   9.7035E-11

== TH FLOW =====================================================================
 Step    136 Time=  6.20000E+00 Dt=  5.00000E-02 [y] snes_conv_reason:   11
  newton =   1 [     141] linear =   111 [     16165] cuts =  0 [   0]
  --> max chng: dpmx=   3.4925E-10 dtmpmx=   9.1347E-11

== TH FLOW =====================================================================
 Step    137 Time=  6.25000E+00 Dt=  5.00000E-02 [y] snes_conv_reason:   11
  newton =   1 [     142] linear =   108 [     16273] cuts =  0 [   0]
  --> max chng: dpmx=   2.3283E-10 dtmpmx=   1.0498E-10

== TH FLOW =====================================================================
 Step    138 Time=  6.30000E+00 Dt=  5.00000E-02 [y] snes_conv_reason:   11
  newton =   1 [     143] linear =    64 [     16337] cuts =  0 [   0]
  --> max chng: dpmx=   2.3283E-10 dtmpmx=   1.0244E-10

== TH FLOW =====================================================================
 Step    139 Time=  6.35000E+00 Dt=  5.00000E-02 [y] snes_conv_reason:   11
  newton =   1 [     144] linear =    91 [     16428] cuts =  0 [   0]
  --> max chng: dpmx=   2.3283E-10 dtmpmx=   1.0104E-10

== TH FLOW =====================================================================
 Step    140 Time=  6.40000E+00 Dt=  5.00000E-02 [y] snes_conv_reason:   11
  newton =   1 [     145] linear =   103 [     16531] cuts =  0 [   0]
  --> max chng: dpmx=   2.3283E-10 dtmpmx=   1.0688E-10

== TH FLOW =====================================================================
 Step    141 Time=  6.45000E+00 Dt=  5.00000E-02 [y] snes_conv_reason:   11
  newton =   1 [     146] linear =    96 [     16627] cuts =  0 [   0]
  --> max chng: dpmx=   2.3283E-10 dtmpmx=   9.2882E-11

== TH FLOW =====================================================================
 Step    142 Time=  6.50000E+00 Dt=  5.00000E-02 [y] snes_conv_reason:   11
  newton =   1 [     147] linear =    79 [     16706] cuts =  0 [   0]
  --> max chng: dpmx=   2.3283E-10 dtmpmx=   8.8995E-11

== TH FLOW =====================================================================
 Step    143 Time=  6.55000E+00 Dt=  5.00000E-02 [y] snes_conv_reason:   11
  newton =   1 [     148] linear =   107 [     16813] cuts =  0 [   0]
  --> max chng: dpmx=   2.3283E-10 dtmpmx=   1.0800E-10

== TH FLOW =====================================================================
 Step    144 Time=  6.60000E+00 Dt=  5.00000E-02 [y] snes_conv_reason:   11
  newton =   1 [     149] linear =   121 [     16934] cuts =  0 [   0]
  --> max chng: dpmx=   2.3283E-10 dtmpmx=   9.7025E-11

== TH FLOW =====================================================================
 Step    145 Time=  6.65000E+00 Dt=  5.00000E-02 [y] snes_conv_reason:   11
  newton =   1 [     150] linear =   112 [     17046] cuts =  0 [   0]
  --> max chng: dpmx=   2.3283E-10 dtmpmx=   9.8670E-11

== TH FLOW =====================================================================
 Step    146 Time=  6.70000E+00 Dt=  5.00000E-02 [y] snes_conv_reason:   11
  newton =   1 [     151] linear =   106 [     17152] cuts =  0 [   0]
  --> max chng: dpmx=   2.3283E-10 dtmpmx=   1.0677E-10

== TH FLOW =====================================================================
 Step    147 Time=  6.75000E+00 Dt=  5.00000E-02 [y] snes_conv_reason:   11
  newton =   1 [     152] linear =   108 [     17260] cuts =  0 [   0]
  --> max chng: dpmx=   2.3283E-10 dtmpmx=   1.0212E-10

== TH FLOW =====================================================================
 Step    148 Time=  6.80000E+00 Dt=  5.00000E-02 [y] snes_conv_reason:   11
  newton =   1 [     153] linear =   119 [     17379] cuts =  0 [   0]
  --> max chng: dpmx=   3.4925E-10 dtmpmx=   9.4657E-11

== TH FLOW =====================================================================
 Step    149 Time=  6.85000E+00 Dt=  5.00000E-02 [y] snes_conv_reason:   11
  newton =   1 [     154] linear =    89 [     17468] cuts =  0 [   0]
  --> max chng: dpmx=   2.3283E-10 dtmpmx=   1.0330E-10

== TH FLOW =====================================================================
 Step    150 Time=  6.90000E+00 Dt=  5.00000E-02 [y] snes_conv_reason:   11
  newton =   1 [     155] linear =    60 [     17528] cuts =  0 [   0]
  --> max chng: dpmx=   2.3283E-10 dtmpmx=   9.7561E-11

== TH FLOW =====================================================================
 Step    151 Time=  6.95000E+00 Dt=  5.00000E-02 [y] snes_conv_reason:   11
  newton =   1 [     156] linear =   121 [     17649] cuts =  0 [   0]
  --> max chng: dpmx=   3.4925E-10 dtmpmx=   9.4939E-11

== TH FLOW =====================================================================
 Step    152 Time=  7.00000E+00 Dt=  5.00000E-02 [y] snes_conv_reason:   11
  newton =   1 [     157] linear =   106 [     17755] cuts =  0 [   0]
  --> max chng: dpmx=   2.3283E-10 dtmpmx=   9.2921E-11

== TH FLOW =====================================================================
 Step    153 Time=  7.05000E+00 Dt=  5.00000E-02 [y] snes_conv_reason:   11
  newton =   1 [     158] linear =   106 [     17861] cuts =  0 [   0]
  --> max chng: dpmx=   2.3283E-10 dtmpmx=   9.2859E-11

== TH FLOW =====================================================================
 Step    154 Time=  7.10000E+00 Dt=  5.00000E-02 [y] snes_conv_reason:   11
  newton =   1 [     159] linear =   105 [     17966] cuts =  0 [   0]
  --> max chng: dpmx=   3.4925E-10 dtmpmx=   8.8463E-11

== TH FLOW =====================================================================
 Step    155 Time=  7.15000E+00 Dt=  5.00000E-02 [y] snes_conv_reason:   11
  newton =   1 [     160] linear =    79 [     18045] cuts =  0 [   0]
  --> max chng: dpmx=   2.3283E-10 dtmpmx=   1.1802E-10

== TH FLOW =====================================================================
 Step    156 Time=  7.20000E+00 Dt=  5.00000E-02 [y] snes_conv_reason:   11
  newton =   1 [     161] linear =    98 [     18143] cuts =  0 [   0]
  --> max chng: dpmx=   2.3283E-10 dtmpmx=   9.6144E-11

== TH FLOW =====================================================================
 Step    157 Time=  7.25000E+00 Dt=  5.00000E-02 [y] snes_conv_reason:   11
  newton =   1 [     162] linear =   111 [     18254] cuts =  0 [   0]
  --> max chng: dpmx=   3.4925E-10 dtmpmx=   8.8740E-11

== TH FLOW =====================================================================
 Step    158 Time=  7.30000E+00 Dt=  5.00000E-02 [y] snes_conv_reason:   11
  newton =   1 [     163] linear =    95 [     18349] cuts =  0 [   0]
  --> max chng: dpmx=   2.3283E-10 dtmpmx=   9.8941E-11

== TH FLOW =====================================================================
 Step    159 Time=  7.35000E+00 Dt=  5.00000E-02 [y] snes_conv_reason:   11
  newton =   1 [     164] linear =   100 [     18449] cuts =  0 [   0]
  --> max chng: dpmx=   2.3283E-10 dtmpmx=   9.6815E-11

== TH FLOW =====================================================================
 Step    160 Time=  7.40000E+00 Dt=  5.00000E-02 [y] snes_conv_reason:   11
  newton =   1 [     165] linear =   100 [     18549] cuts =  0 [   0]
  --> max chng: dpmx=   3.4925E-10 dtmpmx=   9.5522E-11

== TH FLOW =====================================================================
 Step    161 Time=  7.45000E+00 Dt=  5.00000E-02 [y] snes_conv_reason:   11
  newton =   1 [     166] linear =    90 [     18639] cuts =  0 [   0]
  --> max chng: dpmx=   3.4925E-10 dtmpmx=   9.9348E-11

== TH FLOW =====================================================================
 Step    162 Time=  7.50000E+00 Dt=  5.00000E-02 [y] snes_conv_reason:   11
  newton =   1 [     167] linear =   116 [     18755] cuts =  0 [   0]
  --> max chng: dpmx=   3.4925E-10 dtmpmx=   1.0269E-10

== TH FLOW =====================================================================
 Step    163 Time=  7.55000E+00 Dt=  5.00000E-02 [y] snes_conv_reason:   11
  newton =   1 [     168] linear =    96 [     18851] cuts =  0 [   0]
  --> max chng: dpmx=   3.4925E-10 dtmpmx=   1.1020E-10

== TH FLOW =====================================================================
 Step    164 Time=  7.60000E+00 Dt=  5.00000E-02 [y] snes_conv_reason:   11
  newton =   1 [     169] linear =   120 [     18971] cuts =  0 [   0]
  --> max chng: dpmx=   3.4925E-10 dtmpmx=   1.0177E-10

== TH FLOW =====================================================================
 Step    165 Time=  7.65000E+00 Dt=  5.00000E-02 [y] snes_conv_reason:   11
  newton =   1 [     170] linear =   110 [     19081] cuts =  0 [   0]
  --> max chng: dpmx=   3.4925E-10 dtmpmx=   1.0599E-10

== TH FLOW =====================================================================
 Step    166 Time=  7.70000E+00 Dt=  5.00000E-02 [y] snes_conv_reason:   11
  newton =   1 [     171] linear =   106 [     19187] cuts =  0 [   0]
  --> max chng: dpmx=   3.4925E-10 dtmpmx=   1.0725E-10

== TH FLOW =====================================================================
 Step    167 Time=  7.75000E+00 Dt=  5.00000E-02 [y] snes_conv_reason:   11
  newton =   1 [     172] linear =    96 [     19283] cuts =  0 [   0]
  --> max chng: dpmx=   2.3283E-10 dtmpmx=   9.8680E-11

== TH FLOW =====================================================================
 Step    168 Time=  7.80000E+00 Dt=  5.00000E-02 [y] snes_conv_reason:   11
  newton =   1 [     173] linear =    74 [     19357] cuts =  0 [   0]
  --> max chng: dpmx=   3.4925E-10 dtmpmx=   9.8289E-11

== TH FLOW =====================================================================
 Step    169 Time=  7.85000E+00 Dt=  5.00000E-02 [y] snes_conv_reason:   11
  newton =   1 [     174] linear =    70 [     19427] cuts =  0 [   0]
  --> max chng: dpmx=   2.3283E-10 dtmpmx=   1.0347E-10

== TH FLOW =====================================================================
 Step    170 Time=  7.90000E+00 Dt=  5.00000E-02 [y] snes_conv_reason:   11
  newton =   1 [     175] linear =   117 [     19544] cuts =  0 [   0]
  --> max chng: dpmx=   2.3283E-10 dtmpmx=   1.0358E-10

== TH FLOW =====================================================================
 Step    171 Time=  7.95000E+00 Dt=  5.00000E-02 [y] snes_conv_reason:   11
  newton =   1 [     176] linear =    96 [     19640] cuts =  0 [   0]
  --> max chng: dpmx=   2.3283E-10 dtmpmx=   1.1211E-10

== TH FLOW =====================================================================
 Step    172 Time=  8.00000E+00 Dt=  5.00000E-02 [y] snes_conv_reason:   11
  newton =   1 [     177] linear =   108 [     19748] cuts =  0 [   0]
  --> max chng: dpmx=   3.4925E-10 dtmpmx=   9.5346E-11

== TH FLOW =====================================================================
 Step    173 Time=  8.05000E+00 Dt=  5.00000E-02 [y] snes_conv_reason:   11
  newton =   1 [     178] linear =    65 [     19813] cuts =  0 [   0]
  --> max chng: dpmx=   3.4925E-10 dtmpmx=   9.7330E-11

== TH FLOW =====================================================================
 Step    174 Time=  8.10000E+00 Dt=  5.00000E-02 [y] snes_conv_reason:   11
  newton =   1 [     179] linear =   100 [     19913] cuts =  0 [   0]
  --> max chng: dpmx=   2.3283E-10 dtmpmx=   9.9792E-11

== TH FLOW =====================================================================
 Step    175 Time=  8.15000E+00 Dt=  5.00000E-02 [y] snes_conv_reason:   11
  newton =   1 [     180] linear =    91 [     20004] cuts =  0 [   0]
  --> max chng: dpmx=   2.3283E-10 dtmpmx=   1.0258E-10

== TH FLOW =====================================================================
 Step    176 Time=  8.20000E+00 Dt=  5.00000E-02 [y] snes_conv_reason:   11
  newton =   1 [     181] linear =   131 [     20135] cuts =  0 [   0]
  --> max chng: dpmx=   2.3283E-10 dtmpmx=   9.8636E-11

== TH FLOW =====================================================================
 Step    177 Time=  8.25000E+00 Dt=  5.00000E-02 [y] snes_conv_reason:   11
  newton =   1 [     182] linear =    82 [     20217] cuts =  0 [   0]
  --> max chng: dpmx=   2.3283E-10 dtmpmx=   9.7023E-11

== TH FLOW =====================================================================
 Step    178 Time=  8.30000E+00 Dt=  5.00000E-02 [y] snes_conv_reason:   11
  newton =   1 [     183] linear =   109 [     20326] cuts =  0 [   0]
  --> max chng: dpmx=   3.4925E-10 dtmpmx=   9.5373E-11

== TH FLOW =====================================================================
 Step    179 Time=  8.35000E+00 Dt=  5.00000E-02 [y] snes_conv_reason:   11
  newton =   1 [     184] linear =   116 [     20442] cuts =  0 [   0]
  --> max chng: dpmx=   2.3283E-10 dtmpmx=   9.4568E-11

== TH FLOW =====================================================================
 Step    180 Time=  8.40000E+00 Dt=  5.00000E-02 [y] snes_conv_reason:   11
  newton =   1 [     185] linear =   107 [     20549] cuts =  0 [   0]
  --> max chng: dpmx=   3.4925E-10 dtmpmx=   1.1094E-10

== TH FLOW =====================================================================
 Step    181 Time=  8.45000E+00 Dt=  5.00000E-02 [y] snes_conv_reason:   11
  newton =   1 [     186] linear =   105 [     20654] cuts =  0 [   0]
  --> max chng: dpmx=   2.3283E-10 dtmpmx=   1.0801E-10

== TH FLOW =====================================================================
 Step    182 Time=  8.50000E+00 Dt=  5.00000E-02 [y] snes_conv_reason:   11
  newton =   1 [     187] linear =   103 [     20757] cuts =  0 [   0]
  --> max chng: dpmx=   3.4925E-10 dtmpmx=   9.8561E-11

== TH FLOW =====================================================================
 Step    183 Time=  8.55000E+00 Dt=  5.00000E-02 [y] snes_conv_reason:   11
  newton =   1 [     188] linear =   119 [     20876] cuts =  0 [   0]
  --> max chng: dpmx=   3.4925E-10 dtmpmx=   1.0351E-10

== TH FLOW =====================================================================
 Step    184 Time=  8.60000E+00 Dt=  5.00000E-02 [y] snes_conv_reason:   11
  newton =   1 [     189] linear =   111 [     20987] cuts =  0 [   0]
  --> max chng: dpmx=   2.3283E-10 dtmpmx=   1.0901E-10

== TH FLOW =====================================================================
 Step    185 Time=  8.65000E+00 Dt=  5.00000E-02 [y] snes_conv_reason:   11
  newton =   1 [     190] linear =   127 [     21114] cuts =  0 [   0]
  --> max chng: dpmx=   2.3283E-10 dtmpmx=   1.0716E-10

== TH FLOW =====================================================================
 Step    186 Time=  8.70000E+00 Dt=  5.00000E-02 [y] snes_conv_reason:   11
  newton =   1 [     191] linear =   111 [     21225] cuts =  0 [   0]
  --> max chng: dpmx=   3.4925E-10 dtmpmx=   1.2231E-10

== TH FLOW =====================================================================
 Step    187 Time=  8.75000E+00 Dt=  5.00000E-02 [y] snes_conv_reason:   11
  newton =   1 [     192] linear =   102 [     21327] cuts =  0 [   0]
  --> max chng: dpmx=   2.3283E-10 dtmpmx=   9.8499E-11

== TH FLOW =====================================================================
 Step    188 Time=  8.80000E+00 Dt=  5.00000E-02 [y] snes_conv_reason:   11
  newton =   1 [     193] linear =   101 [     21428] cuts =  0 [   0]
  --> max chng: dpmx=   3.4925E-10 dtmpmx=   1.0142E-10

== TH FLOW =====================================================================
 Step    189 Time=  8.85000E+00 Dt=  5.00000E-02 [y] snes_conv_reason:   11
  newton =   1 [     194] linear =   106 [     21534] cuts =  0 [   0]
  --> max chng: dpmx=   2.3283E-10 dtmpmx=   9.2040E-11

== TH FLOW =====================================================================
 Step    190 Time=  8.90000E+00 Dt=  5.00000E-02 [y] snes_conv_reason:   11
  newton =   1 [     195] linear =   112 [     21646] cuts =  0 [   0]
  --> max chng: dpmx=   3.4925E-10 dtmpmx=   9.9924E-11

== TH FLOW =====================================================================
 Step    191 Time=  8.95000E+00 Dt=  5.00000E-02 [y] snes_conv_reason:   11
  newton =   1 [     196] linear =   104 [     21750] cuts =  0 [   0]
  --> max chng: dpmx=   2.3283E-10 dtmpmx=   9.6987E-11

== TH FLOW =====================================================================
 Step    192 Time=  9.00000E+00 Dt=  5.00000E-02 [y] snes_conv_reason:   11
  newton =   1 [     197] linear =   106 [     21856] cuts =  0 [   0]
  --> max chng: dpmx=   3.4925E-10 dtmpmx=   9.2479E-11

== TH FLOW =====================================================================
 Step    193 Time=  9.05000E+00 Dt=  5.00000E-02 [y] snes_conv_reason:   11
  newton =   1 [     198] linear =   102 [     21958] cuts =  0 [   0]
  --> max chng: dpmx=   3.4925E-10 dtmpmx=   1.0557E-10

== TH FLOW =====================================================================
 Step    194 Time=  9.10000E+00 Dt=  5.00000E-02 [y] snes_conv_reason:   11
  newton =   1 [     199] linear =   116 [     22074] cuts =  0 [   0]
  --> max chng: dpmx=   3.4925E-10 dtmpmx=   9.7359E-11

== TH FLOW =====================================================================
 Step    195 Time=  9.15000E+00 Dt=  5.00000E-02 [y] snes_conv_reason:   11
  newton =   1 [     200] linear =   120 [     22194] cuts =  0 [   0]
  --> max chng: dpmx=   2.3283E-10 dtmpmx=   1.1202E-10

== TH FLOW =====================================================================
 Step    196 Time=  9.20000E+00 Dt=  5.00000E-02 [y] snes_conv_reason:   11
  newton =   1 [     201] linear =   109 [     22303] cuts =  0 [   0]
  --> max chng: dpmx=   3.4925E-10 dtmpmx=   9.2308E-11

== TH FLOW =====================================================================
 Step    197 Time=  9.25000E+00 Dt=  5.00000E-02 [y] snes_conv_reason:   11
  newton =   1 [     202] linear =   101 [     22404] cuts =  0 [   0]
  --> max chng: dpmx=   3.4925E-10 dtmpmx=   1.1219E-10

== TH FLOW =====================================================================
 Step    198 Time=  9.30000E+00 Dt=  5.00000E-02 [y] snes_conv_reason:   11
  newton =   1 [     203] linear =   118 [     22522] cuts =  0 [   0]
  --> max chng: dpmx=   3.4925E-10 dtmpmx=   9.6888E-11

== TH FLOW =====================================================================
 Step    199 Time=  9.35000E+00 Dt=  5.00000E-02 [y] snes_conv_reason:   11
  newton =   1 [     204] linear =   120 [     22642] cuts =  0 [   0]
  --> max chng: dpmx=   3.4925E-10 dtmpmx=   9.6643E-11

== TH FLOW =====================================================================
 Step    200 Time=  9.40000E+00 Dt=  5.00000E-02 [y] snes_conv_reason:   11
  newton =   1 [     205] linear =   110 [     22752] cuts =  0 [   0]
  --> max chng: dpmx=   2.3283E-10 dtmpmx=   1.0462E-10

== TH FLOW =====================================================================
 Step    201 Time=  9.45000E+00 Dt=  5.00000E-02 [y] snes_conv_reason:   11
  newton =   1 [     206] linear =   104 [     22856] cuts =  0 [   0]
  --> max chng: dpmx=   3.4925E-10 dtmpmx=   1.0165E-10

== TH FLOW =====================================================================
 Step    202 Time=  9.50000E+00 Dt=  5.00000E-02 [y] snes_conv_reason:   11
  newton =   1 [     207] linear =   125 [     22981] cuts =  0 [   0]
  --> max chng: dpmx=   2.3283E-10 dtmpmx=   8.8638E-11

== TH FLOW =====================================================================
 Step    203 Time=  9.55000E+00 Dt=  5.00000E-02 [y] snes_conv_reason:   11
  newton =   1 [     208] linear =   101 [     23082] cuts =  0 [   0]
  --> max chng: dpmx=   3.4925E-10 dtmpmx=   9.3134E-11

== TH FLOW =====================================================================
 Step    204 Time=  9.60000E+00 Dt=  5.00000E-02 [y] snes_conv_reason:   11
  newton =   1 [     209] linear =   106 [     23188] cuts =  0 [   0]
  --> max chng: dpmx=   2.3283E-10 dtmpmx=   1.0326E-10

== TH FLOW =====================================================================
 Step    205 Time=  9.65000E+00 Dt=  5.00000E-02 [y] snes_conv_reason:   11
  newton =   1 [     210] linear =   102 [     23290] cuts =  0 [   0]
  --> max chng: dpmx=   2.3283E-10 dtmpmx=   9.8231E-11

== TH FLOW =====================================================================
 Step    206 Time=  9.70000E+00 Dt=  5.00000E-02 [y] snes_conv_reason:   11
  newton =   1 [     211] linear =   103 [     23393] cuts =  0 [   0]
  --> max chng: dpmx=   2.3283E-10 dtmpmx=   1.0314E-10

== TH FLOW =====================================================================
 Step    207 Time=  9.75000E+00 Dt=  5.00000E-02 [y] snes_conv_reason:   11
  newton =   1 [     212] linear =   108 [     23501] cuts =  0 [   0]
  --> max chng: dpmx=   2.3283E-10 dtmpmx=   1.0346E-10

== TH FLOW =====================================================================
 Step    208 Time=  9.80000E+00 Dt=  5.00000E-02 [y] snes_conv_reason:   11
  newton =   1 [     213] linear =    91 [     23592] cuts =  0 [   0]
  --> max chng: dpmx=   2.3283E-10 dtmpmx=   9.3257E-11

== TH FLOW =====================================================================
 Step    209 Time=  9.85000E+00 Dt=  5.00000E-02 [y] snes_conv_reason:   11
  newton =   1 [     214] linear =   115 [     23707] cuts =  0 [   0]
  --> max chng: dpmx=   3.4925E-10 dtmpmx=   9.6863E-11

== TH FLOW =====================================================================
 Step    210 Time=  9.90000E+00 Dt=  5.00000E-02 [y] snes_conv_reason:   11
  newton =   1 [     215] linear =   116 [     23823] cuts =  0 [   0]
  --> max chng: dpmx=   3.4925E-10 dtmpmx=   1.0857E-10

== TH FLOW =====================================================================
 Step    211 Time=  9.95000E+00 Dt=  5.00000E-02 [y] snes_conv_reason:   11
  newton =   1 [     216] linear =    57 [     23880] cuts =  0 [   0]
  --> max chng: dpmx=   2.3283E-10 dtmpmx=   9.8106E-11

== TH FLOW =====================================================================
 Step    212 Time=  1.00000E+01 Dt=  5.00000E-02 [y] snes_conv_reason:   11
  newton =   1 [     217] linear =    97 [     23977] cuts =  0 [   0]
  --> max chng: dpmx=   3.4925E-10 dtmpmx=   9.2824E-11

== TH FLOW =====================================================================
 Step    213 Time=  1.00500E+01 Dt=  5.00000E-02 [y] snes_conv_reason:   11
  newton =   1 [     218] linear =   109 [     24086] cuts =  0 [   0]
  --> max chng: dpmx=   3.4925E-10 dtmpmx=   1.0406E-10

== TH FLOW =====================================================================
 Step    214 Time=  1.01000E+01 Dt=  5.00000E-02 [y] snes_conv_reason:   11
  newton =   1 [     219] linear =    91 [     24177] cuts =  0 [   0]
  --> max chng: dpmx=   3.4925E-10 dtmpmx=   1.1626E-10

== TH FLOW =====================================================================
 Step    215 Time=  1.01500E+01 Dt=  5.00000E-02 [y] snes_conv_reason:   11
  newton =   1 [     220] linear =    96 [     24273] cuts =  0 [   0]
  --> max chng: dpmx=   3.4925E-10 dtmpmx=   9.4593E-11

== TH FLOW =====================================================================
 Step    216 Time=  1.02000E+01 Dt=  5.00000E-02 [y] snes_conv_reason:   11
  newton =   1 [     221] linear =    74 [     24347] cuts =  0 [   0]
  --> max chng: dpmx=   3.4925E-10 dtmpmx=   1.0072E-10

== TH FLOW =====================================================================
 Step    217 Time=  1.02500E+01 Dt=  5.00000E-02 [y] snes_conv_reason:   11
  newton =   1 [     222] linear =    97 [     24444] cuts =  0 [   0]
  --> max chng: dpmx=   2.3283E-10 dtmpmx=   9.9648E-11

== TH FLOW =====================================================================
 Step    218 Time=  1.03000E+01 Dt=  5.00000E-02 [y] snes_conv_reason:   11
  newton =   1 [     223] linear =   113 [     24557] cuts =  0 [   0]
  --> max chng: dpmx=   2.3283E-10 dtmpmx=   1.0133E-10

== TH FLOW =====================================================================
 Step    219 Time=  1.03500E+01 Dt=  5.00000E-02 [y] snes_conv_reason:   11
  newton =   1 [     224] linear =   105 [     24662] cuts =  0 [   0]
  --> max chng: dpmx=   2.3283E-10 dtmpmx=   9.8776E-11

== TH FLOW =====================================================================
 Step    220 Time=  1.04000E+01 Dt=  5.00000E-02 [y] snes_conv_reason:   11
  newton =   1 [     225] linear =   127 [     24789] cuts =  0 [   0]
  --> max chng: dpmx=   2.3283E-10 dtmpmx=   9.4685E-11

== TH FLOW =====================================================================
 Step    221 Time=  1.04500E+01 Dt=  5.00000E-02 [y] snes_conv_reason:   11
  newton =   1 [     226] linear =   126 [     24915] cuts =  0 [   0]
  --> max chng: dpmx=   2.3283E-10 dtmpmx=   1.1135E-10

== TH FLOW =====================================================================
 Step    222 Time=  1.05000E+01 Dt=  5.00000E-02 [y] snes_conv_reason:   11
  newton =   1 [     227] linear =   121 [     25036] cuts =  0 [   0]
  --> max chng: dpmx=   2.3283E-10 dtmpmx=   1.0094E-10

== TH FLOW =====================================================================
 Step    223 Time=  1.05500E+01 Dt=  5.00000E-02 [y] snes_conv_reason:   11
  newton =   1 [     228] linear =   102 [     25138] cuts =  0 [   0]
  --> max chng: dpmx=   2.3283E-10 dtmpmx=   9.5445E-11

== TH FLOW =====================================================================
 Step    224 Time=  1.06000E+01 Dt=  5.00000E-02 [y] snes_conv_reason:   11
  newton =   1 [     229] linear =   104 [     25242] cuts =  0 [   0]
  --> max chng: dpmx=   3.4925E-10 dtmpmx=   1.2076E-10

== TH FLOW =====================================================================
 Step    225 Time=  1.06500E+01 Dt=  5.00000E-02 [y] snes_conv_reason:   11
  newton =   1 [     230] linear =   107 [     25349] cuts =  0 [   0]
  --> max chng: dpmx=   2.3283E-10 dtmpmx=   1.0046E-10

== TH FLOW =====================================================================
 Step    226 Time=  1.07000E+01 Dt=  5.00000E-02 [y] snes_conv_reason:   11
  newton =   1 [     231] linear =   109 [     25458] cuts =  0 [   0]
  --> max chng: dpmx=   2.3283E-10 dtmpmx=   1.0001E-10

== TH FLOW =====================================================================
 Step    227 Time=  1.07500E+01 Dt=  5.00000E-02 [y] snes_conv_reason:   11
  newton =   1 [     232] linear =   111 [     25569] cuts =  0 [   0]
  --> max chng: dpmx=   3.4925E-10 dtmpmx=   1.2299E-10

== TH FLOW =====================================================================
 Step    228 Time=  1.08000E+01 Dt=  5.00000E-02 [y] snes_conv_reason:   11
  newton =   1 [     233] linear =    92 [     25661] cuts =  0 [   0]
  --> max chng: dpmx=   2.3283E-10 dtmpmx=   1.0801E-10

== TH FLOW =====================================================================
 Step    229 Time=  1.08500E+01 Dt=  5.00000E-02 [y] snes_conv_reason:   11
  newton =   1 [     234] linear =   111 [     25772] cuts =  0 [   0]
  --> max chng: dpmx=   3.4925E-10 dtmpmx=   1.0214E-10

== TH FLOW =====================================================================
 Step    230 Time=  1.09000E+01 Dt=  5.00000E-02 [y] snes_conv_reason:   11
  newton =   1 [     235] linear =   100 [     25872] cuts =  0 [   0]
  --> max chng: dpmx=   2.3283E-10 dtmpmx=   1.0169E-10

== TH FLOW =====================================================================
 Step    231 Time=  1.09500E+01 Dt=  5.00000E-02 [y] snes_conv_reason:   11
  newton =   1 [     236] linear =   118 [     25990] cuts =  0 [   0]
  --> max chng: dpmx=   2.3283E-10 dtmpmx=   9.9790E-11

== TH FLOW =====================================================================
 Step    232 Time=  1.10000E+01 Dt=  5.00000E-02 [y] snes_conv_reason:   11
  newton =   1 [     237] linear =   111 [     26101] cuts =  0 [   0]
  --> max chng: dpmx=   2.3283E-10 dtmpmx=   9.2150E-11

== TH FLOW =====================================================================
 Step    233 Time=  1.10500E+01 Dt=  5.00000E-02 [y] snes_conv_reason:   11
  newton =   1 [     238] linear =   105 [     26206] cuts =  0 [   0]
  --> max chng: dpmx=   2.3283E-10 dtmpmx=   8.8781E-11

== TH FLOW =====================================================================
 Step    234 Time=  1.11000E+01 Dt=  5.00000E-02 [y] snes_conv_reason:   11
  newton =   1 [     239] linear =   116 [     26322] cuts =  0 [   0]
  --> max chng: dpmx=   2.3283E-10 dtmpmx=   1.0883E-10

== TH FLOW =====================================================================
 Step    235 Time=  1.11500E+01 Dt=  5.00000E-02 [y] snes_conv_reason:   11
  newton =   1 [     240] linear =    98 [     26420] cuts =  0 [   0]
  --> max chng: dpmx=   2.3283E-10 dtmpmx=   1.0375E-10

== TH FLOW =====================================================================
 Step    236 Time=  1.12000E+01 Dt=  5.00000E-02 [y] snes_conv_reason:   11
  newton =   1 [     241] linear =   107 [     26527] cuts =  0 [   0]
  --> max chng: dpmx=   2.3283E-10 dtmpmx=   1.0102E-10

== TH FLOW =====================================================================
 Step    237 Time=  1.12500E+01 Dt=  5.00000E-02 [y] snes_conv_reason:   11
  newton =   1 [     242] linear =   127 [     26654] cuts =  0 [   0]
  --> max chng: dpmx=   3.4925E-10 dtmpmx=   1.0843E-10

== TH FLOW =====================================================================
 Step    238 Time=  1.13000E+01 Dt=  5.00000E-02 [y] snes_conv_reason:   11
  newton =   1 [     243] linear =   117 [     26771] cuts =  0 [   0]
  --> max chng: dpmx=   3.4925E-10 dtmpmx=   9.5209E-11

== TH FLOW =====================================================================
 Step    239 Time=  1.13500E+01 Dt=  5.00000E-02 [y] snes_conv_reason:   11
  newton =   1 [     244] linear =   117 [     26888] cuts =  0 [   0]
  --> max chng: dpmx=   3.4925E-10 dtmpmx=   9.5000E-11

== TH FLOW =====================================================================
 Step    240 Time=  1.14000E+01 Dt=  5.00000E-02 [y] snes_conv_reason:   11
  newton =   1 [     245] linear =   110 [     26998] cuts =  0 [   0]
  --> max chng: dpmx=   2.3283E-10 dtmpmx=   9.2363E-11

== TH FLOW =====================================================================
 Step    241 Time=  1.14500E+01 Dt=  5.00000E-02 [y] snes_conv_reason:   11
  newton =   1 [     246] linear =    88 [     27086] cuts =  0 [   0]
  --> max chng: dpmx=   3.4925E-10 dtmpmx=   1.0856E-10

== TH FLOW =====================================================================
 Step    242 Time=  1.15000E+01 Dt=  5.00000E-02 [y] snes_conv_reason:   11
  newton =   1 [     247] linear =    78 [     27164] cuts =  0 [   0]
  --> max chng: dpmx=   2.3283E-10 dtmpmx=   1.0450E-10

== TH FLOW =====================================================================
 Step    243 Time=  1.15500E+01 Dt=  5.00000E-02 [y] snes_conv_reason:   11
  newton =   1 [     248] linear =    67 [     27231] cuts =  0 [   0]
  --> max chng: dpmx=   3.4925E-10 dtmpmx=   9.6946E-11

== TH FLOW =====================================================================
 Step    244 Time=  1.16000E+01 Dt=  5.00000E-02 [y] snes_conv_reason:   11
  newton =   1 [     249] linear =   106 [     27337] cuts =  0 [   0]
  --> max chng: dpmx=   3.4925E-10 dtmpmx=   1.0982E-10

== TH FLOW =====================================================================
 Step    245 Time=  1.16500E+01 Dt=  5.00000E-02 [y] snes_conv_reason:   11
  newton =   1 [     250] linear =   109 [     27446] cuts =  0 [   0]
  --> max chng: dpmx=   2.3283E-10 dtmpmx=   9.2760E-11

== TH FLOW =====================================================================
 Step    246 Time=  1.17000E+01 Dt=  5.00000E-02 [y] snes_conv_reason:   11
  newton =   1 [     251] linear =   125 [     27571] cuts =  0 [   0]
  --> max chng: dpmx=   3.4925E-10 dtmpmx=   9.2465E-11

== TH FLOW =====================================================================
 Step    247 Time=  1.17500E+01 Dt=  5.00000E-02 [y] snes_conv_reason:   11
  newton =   1 [     252] linear =    76 [     27647] cuts =  0 [   0]
  --> max chng: dpmx=   3.4925E-10 dtmpmx=   1.1404E-10

== TH FLOW =====================================================================
 Step    248 Time=  1.18000E+01 Dt=  5.00000E-02 [y] snes_conv_reason:   11
  newton =   1 [     253] linear =   124 [     27771] cuts =  0 [   0]
  --> max chng: dpmx=   3.4925E-10 dtmpmx=   1.1363E-10

== TH FLOW =====================================================================
 Step    249 Time=  1.18500E+01 Dt=  5.00000E-02 [y] snes_conv_reason:   11
  newton =   1 [     254] linear =    61 [     27832] cuts =  0 [   0]
  --> max chng: dpmx=   2.3283E-10 dtmpmx=   9.3390E-11

== TH FLOW =====================================================================
 Step    250 Time=  1.19000E+01 Dt=  5.00000E-02 [y] snes_conv_reason:   11
  newton =   1 [     255] linear =   112 [     27944] cuts =  0 [   0]
  --> max chng: dpmx=   2.3283E-10 dtmpmx=   9.4028E-11

== TH FLOW =====================================================================
 Step    251 Time=  1.19500E+01 Dt=  5.00000E-02 [y] snes_conv_reason:   11
  newton =   1 [     256] linear =   115 [     28059] cuts =  0 [   0]
  --> max chng: dpmx=   3.4925E-10 dtmpmx=   9.6223E-11

== TH FLOW =====================================================================
 Step    252 Time=  1.20000E+01 Dt=  5.00000E-02 [y] snes_conv_reason:   11
  newton =   1 [     257] linear =    99 [     28158] cuts =  0 [   0]
  --> max chng: dpmx=   2.3283E-10 dtmpmx=   9.6561E-11

== TH FLOW =====================================================================
 Step    253 Time=  1.20500E+01 Dt=  5.00000E-02 [y] snes_conv_reason:   11
  newton =   1 [     258] linear =   103 [     28261] cuts =  0 [   0]
  --> max chng: dpmx=   2.3283E-10 dtmpmx=   1.0172E-10

== TH FLOW =====================================================================
 Step    254 Time=  1.21000E+01 Dt=  5.00000E-02 [y] snes_conv_reason:   11
  newton =   1 [     259] linear =    88 [     28349] cuts =  0 [   0]
  --> max chng: dpmx=   2.3283E-10 dtmpmx=   9.9378E-11

== TH FLOW =====================================================================
 Step    255 Time=  1.21500E+01 Dt=  5.00000E-02 [y] snes_conv_reason:   11
  newton =   1 [     260] linear =   109 [     28458] cuts =  0 [   0]
  --> max chng: dpmx=   2.3283E-10 dtmpmx=   1.1257E-10

== TH FLOW =====================================================================
 Step    256 Time=  1.22000E+01 Dt=  5.00000E-02 [y] snes_conv_reason:   11
  newton =   1 [     261] linear =   110 [     28568] cuts =  0 [   0]
  --> max chng: dpmx=   2.3283E-10 dtmpmx=   1.0307E-10

== TH FLOW =====================================================================
 Step    257 Time=  1.22500E+01 Dt=  5.00000E-02 [y] snes_conv_reason:   11
  newton =   1 [     262] linear =   101 [     28669] cuts =  0 [   0]
  --> max chng: dpmx=   3.4925E-10 dtmpmx=   1.1089E-10

[...]
 Step    493 Time=  2.40500E+01 Dt=  5.00000E-02 [y] snes_conv_reason:   11
  newton =   1 [     498] linear =    85 [     52712] cuts =  0 [   0]
  --> max chng: dpmx=   2.3283E-10 dtmpmx=   9.5513E-11

== TH FLOW =====================================================================
 Step    494 Time=  2.41000E+01 Dt=  5.00000E-02 [y] snes_conv_reason:   11
  newton =   1 [     499] linear =    99 [     52811] cuts =  0 [   0]
  --> max chng: dpmx=   3.4925E-10 dtmpmx=   9.6797E-11

== TH FLOW =====================================================================
 Step    495 Time=  2.41500E+01 Dt=  5.00000E-02 [y] snes_conv_reason:   11
  newton =   1 [     500] linear =   121 [     52932] cuts =  0 [   0]
  --> max chng: dpmx=   3.4925E-10 dtmpmx=   9.0628E-11

== TH FLOW =====================================================================
 Step    496 Time=  2.42000E+01 Dt=  5.00000E-02 [y] snes_conv_reason:   11
  newton =   1 [     501] linear =   100 [     53032] cuts =  0 [   0]
  --> max chng: dpmx=   2.3283E-10 dtmpmx=   1.0534E-10

== TH FLOW =====================================================================
 Step    497 Time=  2.42500E+01 Dt=  5.00000E-02 [y] snes_conv_reason:   11
  newton =   1 [     502] linear =    98 [     53130] cuts =  0 [   0]
  --> max chng: dpmx=   2.3283E-10 dtmpmx=   1.1547E-10

== TH FLOW =====================================================================
 Step    498 Time=  2.43000E+01 Dt=  5.00000E-02 [y] snes_conv_reason:   11
  newton =   1 [     503] linear =   105 [     53235] cuts =  0 [   0]
  --> max chng: dpmx=   2.3283E-10 dtmpmx=   9.6001E-11

== TH FLOW =====================================================================
 Step    499 Time=  2.43500E+01 Dt=  5.00000E-02 [y] snes_conv_reason:   11
  newton =   1 [     504] linear =   114 [     53349] cuts =  0 [   0]
  --> max chng: dpmx=   2.3283E-10 dtmpmx=   9.7957E-11

== TH FLOW =====================================================================
 Step    500 Time=  2.44000E+01 Dt=  5.00000E-02 [y] snes_conv_reason:   11
  newton =   1 [     505] linear =    87 [     53436] cuts =  0 [   0]
  --> max chng: dpmx=   3.4925E-10 dtmpmx=   1.0375E-10

== TH FLOW =====================================================================
 Step    501 Time=  2.44500E+01 Dt=  5.00000E-02 [y] snes_conv_reason:   11
  newton =   1 [     506] linear =   114 [     53550] cuts =  0 [   0]
  --> max chng: dpmx=   2.3283E-10 dtmpmx=   1.0859E-10

== TH FLOW =====================================================================
 Step    502 Time=  2.45000E+01 Dt=  5.00000E-02 [y] snes_conv_reason:   11
  newton =   1 [     507] linear =   106 [     53656] cuts =  0 [   0]
  --> max chng: dpmx=   3.4925E-10 dtmpmx=   1.1625E-10

== TH FLOW =====================================================================
 Step    503 Time=  2.45500E+01 Dt=  5.00000E-02 [y] snes_conv_reason:   11
  newton =   1 [     508] linear =   115 [     53771] cuts =  0 [   0]
  --> max chng: dpmx=   3.4925E-10 dtmpmx=   9.9345E-11

== TH FLOW =====================================================================
 Step    504 Time=  2.46000E+01 Dt=  5.00000E-02 [y] snes_conv_reason:   11
  newton =   1 [     509] linear =   109 [     53880] cuts =  0 [   0]
  --> max chng: dpmx=   3.4925E-10 dtmpmx=   1.0321E-10

== TH FLOW =====================================================================
 Step    505 Time=  2.46500E+01 Dt=  5.00000E-02 [y] snes_conv_reason:   11
  newton =   1 [     510] linear =    95 [     53975] cuts =  0 [   0]
  --> max chng: dpmx=   3.4925E-10 dtmpmx=   9.8126E-11

== TH FLOW =====================================================================
 Step    506 Time=  2.47000E+01 Dt=  5.00000E-02 [y] snes_conv_reason:   11
  newton =   1 [     511] linear =   112 [     54087] cuts =  0 [   0]
  --> max chng: dpmx=   3.4925E-10 dtmpmx=   1.0783E-10

== TH FLOW =====================================================================
 Step    507 Time=  2.47500E+01 Dt=  5.00000E-02 [y] snes_conv_reason:   11
  newton =   1 [     512] linear =   126 [     54213] cuts =  0 [   0]
  --> max chng: dpmx=   3.4925E-10 dtmpmx=   9.7982E-11

== TH FLOW =====================================================================
 Step    508 Time=  2.48000E+01 Dt=  5.00000E-02 [y] snes_conv_reason:   11
  newton =   1 [     513] linear =   116 [     54329] cuts =  0 [   0]
  --> max chng: dpmx=   3.4925E-10 dtmpmx=   1.0002E-10

== TH FLOW =====================================================================
 Step    509 Time=  2.48500E+01 Dt=  5.00000E-02 [y] snes_conv_reason:   11
  newton =   1 [     514] linear =    95 [     54424] cuts =  0 [   0]
  --> max chng: dpmx=   2.3283E-10 dtmpmx=   9.5712E-11

== TH FLOW =====================================================================
 Step    510 Time=  2.49000E+01 Dt=  5.00000E-02 [y] snes_conv_reason:   11
  newton =   1 [     515] linear =    92 [     54516] cuts =  0 [   0]
  --> max chng: dpmx=   3.4925E-10 dtmpmx=   1.1044E-10

== TH FLOW =====================================================================
 Step    511 Time=  2.49500E+01 Dt=  5.00000E-02 [y] snes_conv_reason:   11
  newton =   1 [     516] linear =   111 [     54627] cuts =  0 [   0]
  --> max chng: dpmx=   2.3283E-10 dtmpmx=   1.0113E-10

== TH FLOW =====================================================================
 Step    512 Time=  2.50000E+01 Dt=  5.00000E-02 [y] snes_conv_reason:   11
  newton =   1 [     517] linear =    84 [     54711] cuts =  0 [   0]
  --> max chng: dpmx=   2.3283E-10 dtmpmx=   9.5286E-11

== TH FLOW =====================================================================
 Step    513 Time=  2.50500E+01 Dt=  5.00000E-02 [y] snes_conv_reason:   11
  newton =   1 [     518] linear =    66 [     54777] cuts =  0 [   0]
  --> max chng: dpmx=   2.3283E-10 dtmpmx=   9.6431E-11

== TH FLOW =====================================================================
 Step    514 Time=  2.51000E+01 Dt=  5.00000E-02 [y] snes_conv_reason:   11
  newton =   1 [     519] linear =    99 [     54876] cuts =  0 [   0]
  --> max chng: dpmx=   3.4925E-10 dtmpmx=   1.0997E-10

== TH FLOW =====================================================================
 Step    515 Time=  2.51500E+01 Dt=  5.00000E-02 [y] snes_conv_reason:   11
  newton =   1 [     520] linear =   121 [     54997] cuts =  0 [   0]
  --> max chng: dpmx=   3.4925E-10 dtmpmx=   1.0774E-10

== TH FLOW =====================================================================
 Step    516 Time=  2.52000E+01 Dt=  5.00000E-02 [y] snes_conv_reason:   11
  newton =   1 [     521] linear =    87 [     55084] cuts =  0 [   0]
  --> max chng: dpmx=   2.3283E-10 dtmpmx=   1.0579E-10

== TH FLOW =====================================================================
 Step    517 Time=  2.52500E+01 Dt=  5.00000E-02 [y] snes_conv_reason:   11
  newton =   1 [     522] linear =   120 [     55204] cuts =  0 [   0]
  --> max chng: dpmx=   3.4925E-10 dtmpmx=   1.0080E-10

== TH FLOW =====================================================================
 Step    518 Time=  2.53000E+01 Dt=  5.00000E-02 [y] snes_conv_reason:   11
  newton =   1 [     523] linear =   101 [     55305] cuts =  0 [   0]
  --> max chng: dpmx=   2.3283E-10 dtmpmx=   9.2554E-11

== TH FLOW =====================================================================
 Step    519 Time=  2.53500E+01 Dt=  5.00000E-02 [y] snes_conv_reason:   11
  newton =   1 [     524] linear =   101 [     55406] cuts =  0 [   0]
  --> max chng: dpmx=   2.3283E-10 dtmpmx=   9.6883E-11

== TH FLOW =====================================================================
 Step    520 Time=  2.54000E+01 Dt=  5.00000E-02 [y] snes_conv_reason:   11
  newton =   1 [     525] linear =    67 [     55473] cuts =  0 [   0]
  --> max chng: dpmx=   2.3283E-10 dtmpmx=   9.9810E-11

== TH FLOW =====================================================================
 Step    521 Time=  2.54500E+01 Dt=  5.00000E-02 [y] snes_conv_reason:   11
  newton =   1 [     526] linear =   109 [     55582] cuts =  0 [   0]
  --> max chng: dpmx=   2.3283E-10 dtmpmx=   1.0004E-10

== TH FLOW =====================================================================
 Step    522 Time=  2.55000E+01 Dt=  5.00000E-02 [y] snes_conv_reason:   11
  newton =   1 [     527] linear =    63 [     55645] cuts =  0 [   0]
  --> max chng: dpmx=   3.4925E-10 dtmpmx=   9.8948E-11

== TH FLOW =====================================================================
 Step    523 Time=  2.55500E+01 Dt=  5.00000E-02 [y] snes_conv_reason:   11
  newton =   1 [     528] linear =   102 [     55747] cuts =  0 [   0]
  --> max chng: dpmx=   3.4925E-10 dtmpmx=   1.0423E-10

== TH FLOW =====================================================================
 Step    524 Time=  2.56000E+01 Dt=  5.00000E-02 [y] snes_conv_reason:   11
  newton =   1 [     529] linear =   118 [     55865] cuts =  0 [   0]
  --> max chng: dpmx=   3.4925E-10 dtmpmx=   1.1292E-10

== TH FLOW =====================================================================
 Step    525 Time=  2.56500E+01 Dt=  5.00000E-02 [y] snes_conv_reason:   11
  newton =   1 [     530] linear =    95 [     55960] cuts =  0 [   0]
  --> max chng: dpmx=   3.4925E-10 dtmpmx=   9.4868E-11

== TH FLOW =====================================================================
 Step    526 Time=  2.57000E+01 Dt=  5.00000E-02 [y] snes_conv_reason:   11
  newton =   1 [     531] linear =   106 [     56066] cuts =  0 [   0]
  --> max chng: dpmx=   3.4925E-10 dtmpmx=   9.3712E-11

== TH FLOW =====================================================================
 Step    527 Time=  2.57500E+01 Dt=  5.00000E-02 [y] snes_conv_reason:   11
  newton =   1 [     532] linear =   113 [     56179] cuts =  0 [   0]
  --> max chng: dpmx=   2.3283E-10 dtmpmx=   1.0401E-10

== TH FLOW =====================================================================
 Step    528 Time=  2.58000E+01 Dt=  5.00000E-02 [y] snes_conv_reason:   11
  newton =   1 [     533] linear =   100 [     56279] cuts =  0 [   0]
  --> max chng: dpmx=   3.4925E-10 dtmpmx=   1.0641E-10

== TH FLOW =====================================================================
 Step    529 Time=  2.58500E+01 Dt=  5.00000E-02 [y] snes_conv_reason:   11
  newton =   1 [     534] linear =   114 [     56393] cuts =  0 [   0]
  --> max chng: dpmx=   3.4925E-10 dtmpmx=   1.0142E-10

== TH FLOW =====================================================================
 Step    530 Time=  2.59000E+01 Dt=  5.00000E-02 [y] snes_conv_reason:   11
  newton =   1 [     535] linear =   110 [     56503] cuts =  0 [   0]
  --> max chng: dpmx=   3.4925E-10 dtmpmx=   9.9790E-11

== TH FLOW =====================================================================
 Step    531 Time=  2.59500E+01 Dt=  5.00000E-02 [y] snes_conv_reason:   11
  newton =   1 [     536] linear =   115 [     56618] cuts =  0 [   0]
  --> max chng: dpmx=   2.3283E-10 dtmpmx=   9.7142E-11

== TH FLOW =====================================================================
 Step    532 Time=  2.60000E+01 Dt=  5.00000E-02 [y] snes_conv_reason:   11
  newton =   1 [     537] linear =   116 [     56734] cuts =  0 [   0]
  --> max chng: dpmx=   2.3283E-10 dtmpmx=   1.0444E-10

== TH FLOW =====================================================================
 Step    533 Time=  2.60500E+01 Dt=  5.00000E-02 [y] snes_conv_reason:   11
  newton =   1 [     538] linear =   121 [     56855] cuts =  0 [   0]
  --> max chng: dpmx=   3.4925E-10 dtmpmx=   1.0491E-10

== TH FLOW =====================================================================
 Step    534 Time=  2.61000E+01 Dt=  5.00000E-02 [y] snes_conv_reason:   11
  newton =   1 [     539] linear =   103 [     56958] cuts =  0 [   0]
  --> max chng: dpmx=   3.4925E-10 dtmpmx=   9.2438E-11

== TH FLOW =====================================================================
 Step    535 Time=  2.61500E+01 Dt=  5.00000E-02 [y] snes_conv_reason:   11
  newton =   1 [     540] linear =   119 [     57077] cuts =  0 [   0]
  --> max chng: dpmx=   2.3283E-10 dtmpmx=   9.6115E-11

== TH FLOW =====================================================================
 Step    536 Time=  2.62000E+01 Dt=  5.00000E-02 [y] snes_conv_reason:   11
  newton =   1 [     541] linear =    84 [     57161] cuts =  0 [   0]
  --> max chng: dpmx=   3.4925E-10 dtmpmx=   9.8112E-11

== TH FLOW =====================================================================
 Step    537 Time=  2.62500E+01 Dt=  5.00000E-02 [y] snes_conv_reason:   11
  newton =   1 [     542] linear =   114 [     57275] cuts =  0 [   0]
  --> max chng: dpmx=   3.4925E-10 dtmpmx=   9.4444E-11

== TH FLOW =====================================================================
 Step    538 Time=  2.63000E+01 Dt=  5.00000E-02 [y] snes_conv_reason:   11
  newton =   1 [     543] linear =   123 [     57398] cuts =  0 [   0]
  --> max chng: dpmx=   3.4925E-10 dtmpmx=   1.1783E-10

== TH FLOW =====================================================================
 Step    539 Time=  2.63500E+01 Dt=  5.00000E-02 [y] snes_conv_reason:   11
  newton =   1 [     544] linear =    85 [     57483] cuts =  0 [   0]
  --> max chng: dpmx=   2.3283E-10 dtmpmx=   1.0598E-10

== TH FLOW =====================================================================
 Step    540 Time=  2.64000E+01 Dt=  5.00000E-02 [y] snes_conv_reason:   11
  newton =   1 [     545] linear =    76 [     57559] cuts =  0 [   0]
  --> max chng: dpmx=   2.3283E-10 dtmpmx=   1.1411E-10

== TH FLOW =====================================================================
 Step    541 Time=  2.64500E+01 Dt=  5.00000E-02 [y] snes_conv_reason:   11
  newton =   1 [     546] linear =    71 [     57630] cuts =  0 [   0]
  --> max chng: dpmx=   2.3283E-10 dtmpmx=   9.4470E-11

== TH FLOW =====================================================================
 Step    542 Time=  2.65000E+01 Dt=  5.00000E-02 [y] snes_conv_reason:   11
  newton =   1 [     547] linear =   106 [     57736] cuts =  0 [   0]
  --> max chng: dpmx=   3.4925E-10 dtmpmx=   1.1488E-10

== TH FLOW =====================================================================
 Step    543 Time=  2.65500E+01 Dt=  5.00000E-02 [y] snes_conv_reason:   11
  newton =   1 [     548] linear =   102 [     57838] cuts =  0 [   0]
  --> max chng: dpmx=   2.3283E-10 dtmpmx=   1.0826E-10

== TH FLOW =====================================================================
 Step    544 Time=  2.66000E+01 Dt=  5.00000E-02 [y] snes_conv_reason:   11
  newton =   1 [     549] linear =   122 [     57960] cuts =  0 [   0]
  --> max chng: dpmx=   3.4925E-10 dtmpmx=   1.0854E-10

== TH FLOW =====================================================================
 Step    545 Time=  2.66500E+01 Dt=  5.00000E-02 [y] snes_conv_reason:   11
  newton =   1 [     550] linear =   105 [     58065] cuts =  0 [   0]
  --> max chng: dpmx=   2.3283E-10 dtmpmx=   1.0239E-10

== TH FLOW =====================================================================
 Step    546 Time=  2.67000E+01 Dt=  5.00000E-02 [y] snes_conv_reason:   11
  newton =   1 [     551] linear =   120 [     58185] cuts =  0 [   0]
  --> max chng: dpmx=   2.3283E-10 dtmpmx=   1.0212E-10

== TH FLOW =====================================================================
 Step    547 Time=  2.67500E+01 Dt=  5.00000E-02 [y] snes_conv_reason:   11
  newton =   1 [     552] linear =    74 [     58259] cuts =  0 [   0]
  --> max chng: dpmx=   2.3283E-10 dtmpmx=   9.9103E-11

== TH FLOW =====================================================================
 Step    548 Time=  2.68000E+01 Dt=  5.00000E-02 [y] snes_conv_reason:   11
  newton =   1 [     553] linear =    92 [     58351] cuts =  0 [   0]
  --> max chng: dpmx=   3.4925E-10 dtmpmx=   9.6268E-11

== TH FLOW =====================================================================
 Step    549 Time=  2.68500E+01 Dt=  5.00000E-02 [y] snes_conv_reason:   11
  newton =   1 [     554] linear =   111 [     58462] cuts =  0 [   0]
  --> max chng: dpmx=   2.3283E-10 dtmpmx=   9.9039E-11

== TH FLOW =====================================================================
 Step    550 Time=  2.69000E+01 Dt=  5.00000E-02 [y] snes_conv_reason:   11
  newton =   1 [     555] linear =    99 [     58561] cuts =  0 [   0]
  --> max chng: dpmx=   3.4925E-10 dtmpmx=   1.0013E-10

== TH FLOW =====================================================================
 Step    551 Time=  2.69500E+01 Dt=  5.00000E-02 [y] snes_conv_reason:   11
  newton =   1 [     556] linear =   118 [     58679] cuts =  0 [   0]
  --> max chng: dpmx=   3.4925E-10 dtmpmx=   1.0221E-10

== TH FLOW =====================================================================
 Step    552 Time=  2.70000E+01 Dt=  5.00000E-02 [y] snes_conv_reason:   11
  newton =   1 [     557] linear =    76 [     58755] cuts =  0 [   0]
  --> max chng: dpmx=   3.4925E-10 dtmpmx=   1.1417E-10

== TH FLOW =====================================================================
 Step    553 Time=  2.70500E+01 Dt=  5.00000E-02 [y] snes_conv_reason:   11
  newton =   1 [     558] linear =   112 [     58867] cuts =  0 [   0]
  --> max chng: dpmx=   3.4925E-10 dtmpmx=   1.0400E-10

== TH FLOW =====================================================================
 Step    554 Time=  2.71000E+01 Dt=  5.00000E-02 [y] snes_conv_reason:   11
  newton =   1 [     559] linear =   111 [     58978] cuts =  0 [   0]
  --> max chng: dpmx=   3.4925E-10 dtmpmx=   9.6714E-11

== TH FLOW =====================================================================
 Step    555 Time=  2.71500E+01 Dt=  5.00000E-02 [y] snes_conv_reason:   11
  newton =   1 [     560] linear =   107 [     59085] cuts =  0 [   0]
  --> max chng: dpmx=   2.3283E-10 dtmpmx=   9.2385E-11

== TH FLOW =====================================================================
 Step    556 Time=  2.72000E+01 Dt=  5.00000E-02 [y] snes_conv_reason:   11
  newton =   1 [     561] linear =   109 [     59194] cuts =  0 [   0]
  --> max chng: dpmx=   2.3283E-10 dtmpmx=   1.0563E-10

== TH FLOW =====================================================================
 Step    557 Time=  2.72500E+01 Dt=  5.00000E-02 [y] snes_conv_reason:   11
  newton =   1 [     562] linear =   104 [     59298] cuts =  0 [   0]
  --> max chng: dpmx=   2.3283E-10 dtmpmx=   1.0006E-10

== TH FLOW =====================================================================
 Step    558 Time=  2.73000E+01 Dt=  5.00000E-02 [y] snes_conv_reason:   11
  newton =   1 [     563] linear =    74 [     59372] cuts =  0 [   0]
  --> max chng: dpmx=   3.4925E-10 dtmpmx=   9.1712E-11

== TH FLOW =====================================================================
 Step    559 Time=  2.73500E+01 Dt=  5.00000E-02 [y] snes_conv_reason:   11
  newton =   1 [     564] linear =   122 [     59494] cuts =  0 [   0]
  --> max chng: dpmx=   2.3283E-10 dtmpmx=   1.1841E-10

== TH FLOW =====================================================================
 Step    560 Time=  2.74000E+01 Dt=  5.00000E-02 [y] snes_conv_reason:   11
  newton =   1 [     565] linear =   121 [     59615] cuts =  0 [   0]
  --> max chng: dpmx=   3.4925E-10 dtmpmx=   1.0122E-10

== TH FLOW =====================================================================
 Step    561 Time=  2.74500E+01 Dt=  5.00000E-02 [y] snes_conv_reason:   11
  newton =   1 [     566] linear =   118 [     59733] cuts =  0 [   0]
  --> max chng: dpmx=   3.4925E-10 dtmpmx=   9.7259E-11

== TH FLOW =====================================================================
 Step    562 Time=  2.75000E+01 Dt=  5.00000E-02 [y] snes_conv_reason:   11
  newton =   1 [     567] linear =    83 [     59816] cuts =  0 [   0]
  --> max chng: dpmx=   2.3283E-10 dtmpmx=   1.1309E-10

 Wall Clock Time:  1.7854E+02 [sec]   2.9756E+00 [min]   4.9593E-02 [hr]
