
===================
  PFLOTRAN v3.0.1
===================

 Extent of Gridded Domain
  X: 2.5000000000000000 - 97.500000000000000
  Y: 2.5000000000000000 - 1277.5000000000000
  Z: 2.5000000000000000 - 2.5000000000000000


=+=+=+=+=+=+=+=+=+=+=+=+=+=+=+=+=+=+=+=+=+=+=+=+=+=+=+=+=+=+=+=+=+=+=+=+=+=+=+=+

  Initial Condition

--------------------------------------------------------------------------------
          Flow Condition:   initial
                  Region:   all
--------------------------------------------------------------------------------

  Flow Condition: initial
    Synchronize time with update: no
    Time units: yr
    Length units: m
      Datum:
        Dataset: Unnamed Ascii Dataset
          Type: dataset_ascii_type
          Transient: no
          Array Rank:  3

    Sub Condition: pressure
      Type: hydrostatic
      Gradient:
        Dataset: Unnamed Ascii Dataset
          Type: dataset_ascii_type
          Transient: no
          Array Rank:  3
      Data:
        Dataset: Unnamed Ascii Dataset
          Type: dataset_ascii_type
          Transient: no
          Array Rank:  1

    Sub Condition: temperature
      Type: dirichlet
      Gradient:
      Data:
        Dataset: Unnamed Ascii Dataset
          Type: dataset_ascii_type
          Transient: no
          Array Rank:  1

--------------------------------------------------------------------------------

=+=+=+=+=+=+=+=+=+=+=+=+=+=+=+=+=+=+=+=+=+=+=+=+=+=+=+=+=+=+=+=+=+=+=+=+=+=+=+=+

  Boundary Condition

--------------------------------------------------------------------------------
          Flow Condition:   initial
                  Region:   north
--------------------------------------------------------------------------------

  Flow Condition: initial
    Synchronize time with update: no
    Time units: yr
    Length units: m
      Datum:
        Dataset: Unnamed Ascii Dataset
          Type: dataset_ascii_type
          Transient: no
          Array Rank:  3

    Sub Condition: pressure
      Type: hydrostatic
      Gradient:
        Dataset: Unnamed Ascii Dataset
          Type: dataset_ascii_type
          Transient: no
          Array Rank:  3
      Data:
        Dataset: Unnamed Ascii Dataset
          Type: dataset_ascii_type
          Transient: no
          Array Rank:  1

    Sub Condition: temperature
      Type: dirichlet
      Gradient:
      Data:
        Dataset: Unnamed Ascii Dataset
          Type: dataset_ascii_type
          Transient: no
          Array Rank:  1

--------------------------------------------------------------------------------

=+=+=+=+=+=+=+=+=+=+=+=+=+=+=+=+=+=+=+=+=+=+=+=+=+=+=+=+=+=+=+=+=+=+=+=+=+=+=+=+

  Boundary Condition

--------------------------------------------------------------------------------
          Flow Condition:   initial
                  Region:   south
--------------------------------------------------------------------------------

  Flow Condition: initial
    Synchronize time with update: no
    Time units: yr
    Length units: m
      Datum:
        Dataset: Unnamed Ascii Dataset
          Type: dataset_ascii_type
          Transient: no
          Array Rank:  3

    Sub Condition: pressure
      Type: hydrostatic
      Gradient:
        Dataset: Unnamed Ascii Dataset
          Type: dataset_ascii_type
          Transient: no
          Array Rank:  3
      Data:
        Dataset: Unnamed Ascii Dataset
          Type: dataset_ascii_type
          Transient: no
          Array Rank:  1

    Sub Condition: temperature
      Type: dirichlet
      Gradient:
      Data:
        Dataset: Unnamed Ascii Dataset
          Type: dataset_ascii_type
          Transient: no
          Array Rank:  1

--------------------------------------------------------------------------------

=+=+=+=+=+=+=+=+=+=+=+=+=+=+=+=+=+=+=+=+=+=+=+=+=+=+=+=+=+=+=+=+=+=+=+=+=+=+=+=+

  Source Sink

--------------------------------------------------------------------------------
          Flow Condition:   injection
                  Region:   heatpump_inject0
--------------------------------------------------------------------------------

  Flow Condition: injection
    Synchronize time with update: no
    Time units: yr
    Length units: m
      Datum:

    Sub Condition: rate
      Type: scaled volumetric rate
      Gradient:
      Data:
        Dataset: Unnamed Ascii Dataset
          Type: dataset_ascii_type
          Is transient?: yes
          Number of times:      3
          Is cyclic?: no
          Buffer:
            Rank:  2
            Dims:    1   3
            Buffer Slice Size:   0
          Array Rank:  1

    Sub Condition: temperature
      Type: dirichlet
      Gradient:
      Data:
        Dataset: Unnamed Ascii Dataset
          Type: dataset_ascii_type
          Transient: no
          Array Rank:  1

--------------------------------------------------------------------------------

 Requested processors =    16

FLOW Time Stepper
                 acceleration: on
       acceleration threshold: 5
       number of ramp entries: 5
                ramp entry #1: 2.0000
                ramp entry #2: 2.0000
                ramp entry #3: 2.0000
                ramp entry #4: 2.0000
                ramp entry #5: 2.0000
                ramp entry #6: 1.8000
                ramp entry #7: 1.6000
                ramp entry #8: 1.4000
                ramp entry #9: 1.2000
               ramp entry #10: 1.0000
               ramp entry #11: 1.0000
               ramp entry #12: 1.0000
               ramp entry #13: 1.0000
      maximum number of steps: 999999
constant time steps threshold: 5
       maximum number of cuts: 16
             reduction factor: 5.000000E-01
        maximum growth factor: 2.000000E+00

FLOW Newton Solver
                         atol: 1.000000E-50
                         rtol: 1.000000E-03
                         stol: 1.000000E-08
                         dtol: 1.000000E+04
                      maxnorm: 1.000000E+20
                    inftolres: -9.990000E+02
                    inftolupd: 1.000000E+00
                 inftolrelupd: -9.990000E+02
                 inftolsclres: -9.990000E+02
                     max iter: 50
                     min iter: 1
                         maxf: 10000
                  matrix type: baij
         precond. matrix type: baij
               inexact newton: off
            print convergence: on
   print detailed convergence: off
          check infinity norm: on

FLOW Linear Solver
                       solver: bcgs
               preconditioner: bjacobi
                         atol: 1.000000E-50
                         rtol: 1.000000E-05
                         dtol: 1.000000E+04
            maximum iteration: 10000

== TH FLOW =====================================================================
 Step      1 Time=  1.00000E-05 Dt=  1.00000E-05 [y] snes_conv_reason:   11
  newton =   1 [       1] linear =    66 [        66] cuts =  0 [   0]
  --> max chng: dpmx=   9.2956E-02 dtmpmx=   2.1503E-08

== TH FLOW =====================================================================
 Step      2 Time=  3.00000E-05 Dt=  2.00000E-05 [y] snes_conv_reason:   11
  newton =   1 [       2] linear =    87 [       153] cuts =  0 [   0]
  --> max chng: dpmx=   1.1244E-02 dtmpmx=   4.2788E-08

== TH FLOW =====================================================================
 Step      3 Time=  7.00000E-05 Dt=  4.00000E-05 [y] snes_conv_reason:   11
  newton =   1 [       3] linear =   116 [       269] cuts =  0 [   0]
  --> max chng: dpmx=   6.8209E-04 dtmpmx=   8.5550E-08

== TH FLOW =====================================================================
 Step      4 Time=  1.50000E-04 Dt=  8.00000E-05 [y] snes_conv_reason:   11
  newton =   1 [       4] linear =   119 [       388] cuts =  0 [   0]
  --> max chng: dpmx=   2.0620E-05 dtmpmx=   1.7110E-07

== TH FLOW =====================================================================
 Step      5 Time=  3.10000E-04 Dt=  1.60000E-04 [y] snes_conv_reason:   11
  newton =   1 [       5] linear =   119 [       507] cuts =  0 [   0]
  --> max chng: dpmx=   1.2805E-06 dtmpmx=   3.4220E-07

== TH FLOW =====================================================================
 Step      6 Time=  6.30000E-04 Dt=  3.20000E-04 [y] snes_conv_reason:   11
  newton =   1 [       6] linear =   111 [       618] cuts =  0 [   0]
  --> max chng: dpmx=   2.6346E-06 dtmpmx=   6.8440E-07

== TH FLOW =====================================================================
 Step      7 Time=  1.27000E-03 Dt=  6.40000E-04 [y] snes_conv_reason:   11
  newton =   1 [       7] linear =   123 [       741] cuts =  0 [   0]
  --> max chng: dpmx=   5.4792E-06 dtmpmx=   1.3688E-06

== TH FLOW =====================================================================
 Step      8 Time=  2.55000E-03 Dt=  1.28000E-03 [y] snes_conv_reason:   11
  newton =   1 [       8] linear =   122 [       863] cuts =  0 [   0]
  --> max chng: dpmx=   1.1809E-05 dtmpmx=   2.7376E-06

== TH FLOW =====================================================================
 Step      9 Time=  5.11000E-03 Dt=  2.56000E-03 [y] snes_conv_reason:   11
  newton =   1 [       9] linear =   124 [       987] cuts =  0 [   0]
  --> max chng: dpmx=   2.7008E-05 dtmpmx=   5.4752E-06

== TH FLOW =====================================================================
 Step     10 Time=  1.02300E-02 Dt=  5.12000E-03 [y] snes_conv_reason:   11
  newton =   1 [      10] linear =   120 [      1107] cuts =  0 [   0]
  --> max chng: dpmx=   6.7617E-05 dtmpmx=   1.0950E-05

== TH FLOW =====================================================================
 Step     11 Time=  2.04700E-02 Dt=  1.02400E-02 [y] snes_conv_reason:   11
  newton =   1 [      11] linear =   122 [      1229] cuts =  0 [   0]
  --> max chng: dpmx=   1.8884E-04 dtmpmx=   2.1901E-05

== TH FLOW =====================================================================
 Step     12 Time=  4.09500E-02 Dt=  2.04800E-02 [y] snes_conv_reason:   11
  newton =   1 [      12] linear =   117 [      1346] cuts =  0 [   0]
  --> max chng: dpmx=   5.8706E-04 dtmpmx=   4.3802E-05

== TH FLOW =====================================================================
 Step     13 Time=  8.19100E-02 Dt=  4.09600E-02 [y] snes_conv_reason:   11
  newton =   1 [      13] linear =   121 [      1467] cuts =  0 [   0]
  --> max chng: dpmx=   1.9762E-03 dtmpmx=   8.7604E-05

== TH FLOW =====================================================================
 Step     14 Time=  1.00000E-01 Dt=  1.80900E-02 [y] snes_conv_reason:   11
  newton =   1 [      14] linear =   123 [      1590] cuts =  0 [   0]
  --> max chng: dpmx=   1.0303E-03 dtmpmx=   3.8690E-05

== TH FLOW =====================================================================
 Step     15 Time=  1.50000E-01 Dt=  5.00000E-02 [y] snes_conv_reason:   11
  newton =   1 [      15] linear =   121 [      1711] cuts =  0 [   0]
  --> max chng: dpmx=   3.9833E-03 dtmpmx=   1.0694E-04

== TH FLOW =====================================================================
 Step     16 Time=  2.00000E-01 Dt=  5.00000E-02 [y] snes_conv_reason:   11
  newton =   1 [      16] linear =   120 [      1831] cuts =  0 [   0]
  --> max chng: dpmx=   5.0814E-03 dtmpmx=   1.0694E-04

== TH FLOW =====================================================================
 Step     17 Time=  2.50000E-01 Dt=  5.00000E-02 [y] snes_conv_reason:   11
  newton =   2 [      18] linear =   243 [      2074] cuts =  0 [   0]
  --> max chng: dpmx=   1.4136E+02 dtmpmx=   1.9499E+00

== TH FLOW =====================================================================
 Step     18 Time=  3.00000E-01 Dt=  5.00000E-02 [y] snes_conv_reason:   11
  newton =   2 [      20] linear =   236 [      2310] cuts =  0 [   0]
  --> max chng: dpmx=   1.9856E+00 dtmpmx=   7.4628E-01

== TH FLOW =====================================================================
 Step     19 Time=  3.50000E-01 Dt=  5.00000E-02 [y] snes_conv_reason:   11
  newton =   2 [      22] linear =   236 [      2546] cuts =  0 [   0]
  --> max chng: dpmx=   1.8539E+00 dtmpmx=   5.4117E-01

== TH FLOW =====================================================================
 Step     20 Time=  4.00000E-01 Dt=  5.00000E-02 [y] snes_conv_reason:   11
  newton =   2 [      24] linear =   243 [      2789] cuts =  0 [   0]
  --> max chng: dpmx=   1.7759E+00 dtmpmx=   4.3918E-01

== TH FLOW =====================================================================
 Step     21 Time=  4.50000E-01 Dt=  5.00000E-02 [y] snes_conv_reason:   11
  newton =   2 [      26] linear =   240 [      3029] cuts =  0 [   0]
  --> max chng: dpmx=   1.7131E+00 dtmpmx=   3.7786E-01

== TH FLOW =====================================================================
 Step     22 Time=  5.00000E-01 Dt=  5.00000E-02 [y] snes_conv_reason:   11
  newton =   2 [      28] linear =   239 [      3268] cuts =  0 [   0]
  --> max chng: dpmx=   1.6578E+00 dtmpmx=   3.3370E-01

== TH FLOW =====================================================================
 Step     23 Time=  5.50000E-01 Dt=  5.00000E-02 [y] snes_conv_reason:   11
  newton =   2 [      30] linear =   247 [      3515] cuts =  0 [   0]
  --> max chng: dpmx=   1.6068E+00 dtmpmx=   3.0114E-01

== TH FLOW =====================================================================
 Step     24 Time=  6.00000E-01 Dt=  5.00000E-02 [y] snes_conv_reason:    3
  newton =   1 [      31] linear =   115 [      3630] cuts =  0 [   0]
  --> max chng: dpmx=   1.5580E+00 dtmpmx=   2.7517E-01

== TH FLOW =====================================================================
 Step     25 Time=  6.50000E-01 Dt=  5.00000E-02 [y] snes_conv_reason:    3
  newton =   1 [      32] linear =   113 [      3743] cuts =  0 [   0]
  --> max chng: dpmx=   1.5124E+00 dtmpmx=   2.5409E-01

== TH FLOW =====================================================================
 Step     26 Time=  7.00000E-01 Dt=  5.00000E-02 [y] snes_conv_reason:    3
  newton =   1 [      33] linear =   111 [      3854] cuts =  0 [   0]
  --> max chng: dpmx=   1.4685E+00 dtmpmx=   2.3634E-01

== TH FLOW =====================================================================
 Step     27 Time=  7.50000E-01 Dt=  5.00000E-02 [y] snes_conv_reason:    3
  newton =   1 [      34] linear =   116 [      3970] cuts =  0 [   0]
  --> max chng: dpmx=   1.4244E+00 dtmpmx=   2.2115E-01

== TH FLOW =====================================================================
 Step     28 Time=  8.00000E-01 Dt=  5.00000E-02 [y] snes_conv_reason:    3
  newton =   1 [      35] linear =   119 [      4089] cuts =  0 [   0]
  --> max chng: dpmx=   1.3815E+00 dtmpmx=   2.0804E-01

== TH FLOW =====================================================================
 Step     29 Time=  8.50000E-01 Dt=  5.00000E-02 [y] snes_conv_reason:    3
  newton =   1 [      36] linear =   113 [      4202] cuts =  0 [   0]
  --> max chng: dpmx=   1.3400E+00 dtmpmx=   1.9639E-01

== TH FLOW =====================================================================
 Step     30 Time=  9.00000E-01 Dt=  5.00000E-02 [y] snes_conv_reason:    3
  newton =   1 [      37] linear =   116 [      4318] cuts =  0 [   0]
  --> max chng: dpmx=   1.2992E+00 dtmpmx=   1.8621E-01

== TH FLOW =====================================================================
 Step     31 Time=  9.50000E-01 Dt=  5.00000E-02 [y] snes_conv_reason:    3
  newton =   1 [      38] linear =   114 [      4432] cuts =  0 [   0]
  --> max chng: dpmx=   1.2582E+00 dtmpmx=   1.7690E-01

== TH FLOW =====================================================================
 Step     32 Time=  1.00000E+00 Dt=  5.00000E-02 [y] snes_conv_reason:    3
  newton =   1 [      39] linear =   117 [      4549] cuts =  0 [   0]
  --> max chng: dpmx=   1.2189E+00 dtmpmx=   1.6871E-01

== TH FLOW =====================================================================
 Step     33 Time=  1.05000E+00 Dt=  5.00000E-02 [y] snes_conv_reason:    3
  newton =   1 [      40] linear =   118 [      4667] cuts =  0 [   0]
  --> max chng: dpmx=   1.1793E+00 dtmpmx=   1.6113E-01

== TH FLOW =====================================================================
 Step     34 Time=  1.10000E+00 Dt=  5.00000E-02 [y] snes_conv_reason:    3
  newton =   1 [      41] linear =   118 [      4785] cuts =  0 [   0]
  --> max chng: dpmx=   1.1398E+00 dtmpmx=   1.5430E-01

== TH FLOW =====================================================================
 Step     35 Time=  1.15000E+00 Dt=  5.00000E-02 [y] snes_conv_reason:    3
  newton =   1 [      42] linear =   107 [      4892] cuts =  0 [   0]
  --> max chng: dpmx=   1.1015E+00 dtmpmx=   1.4797E-01

== TH FLOW =====================================================================
 Step     36 Time=  1.20000E+00 Dt=  5.00000E-02 [y] snes_conv_reason:    3
  newton =   1 [      43] linear =   107 [      4999] cuts =  0 [   0]
  --> max chng: dpmx=   1.0627E+00 dtmpmx=   1.4217E-01

== TH FLOW =====================================================================
 Step     37 Time=  1.25000E+00 Dt=  5.00000E-02 [y] snes_conv_reason:    3
  newton =   1 [      44] linear =   116 [      5115] cuts =  0 [   0]
  --> max chng: dpmx=   1.0249E+00 dtmpmx=   1.3680E-01

== TH FLOW =====================================================================
 Step     38 Time=  1.30000E+00 Dt=  5.00000E-02 [y] snes_conv_reason:   11
  newton =   1 [      45] linear =   113 [      5228] cuts =  0 [   0]
  --> max chng: dpmx=   9.8712E-01 dtmpmx=   1.3179E-01

== TH FLOW =====================================================================
 Step     39 Time=  1.35000E+00 Dt=  5.00000E-02 [y] snes_conv_reason:   11
  newton =   1 [      46] linear =   111 [      5339] cuts =  0 [   0]
  --> max chng: dpmx=   9.4963E-01 dtmpmx=   1.2718E-01

== TH FLOW =====================================================================
 Step     40 Time=  1.40000E+00 Dt=  5.00000E-02 [y] snes_conv_reason:   11
  newton =   1 [      47] linear =   115 [      5454] cuts =  0 [   0]
  --> max chng: dpmx=   9.1248E-01 dtmpmx=   1.2281E-01

== TH FLOW =====================================================================
 Step     41 Time=  1.45000E+00 Dt=  5.00000E-02 [y] snes_conv_reason:   11
  newton =   1 [      48] linear =   116 [      5570] cuts =  0 [   0]
  --> max chng: dpmx=   8.7568E-01 dtmpmx=   1.1880E-01

== TH FLOW =====================================================================
 Step     42 Time=  1.50000E+00 Dt=  5.00000E-02 [y] snes_conv_reason:   11
  newton =   1 [      49] linear =   101 [      5671] cuts =  0 [   0]
  --> max chng: dpmx=   8.3897E-01 dtmpmx=   1.1496E-01

== TH FLOW =====================================================================
 Step     43 Time=  1.55000E+00 Dt=  5.00000E-02 [y] snes_conv_reason:   11
  newton =   1 [      50] linear =   115 [      5786] cuts =  0 [   0]
  --> max chng: dpmx=   8.0210E-01 dtmpmx=   1.1142E-01

== TH FLOW =====================================================================
 Step     44 Time=  1.60000E+00 Dt=  5.00000E-02 [y] snes_conv_reason:   11
  newton =   1 [      51] linear =   108 [      5894] cuts =  0 [   0]
  --> max chng: dpmx=   7.6607E-01 dtmpmx=   1.0803E-01

== TH FLOW =====================================================================
 Step     45 Time=  1.65000E+00 Dt=  5.00000E-02 [y] snes_conv_reason:   11
  newton =   1 [      52] linear =   110 [      6004] cuts =  0 [   0]
  --> max chng: dpmx=   7.8242E-01 dtmpmx=   1.0487E-01

== TH FLOW =====================================================================
 Step     46 Time=  1.70000E+00 Dt=  5.00000E-02 [y] snes_conv_reason:   11
  newton =   1 [      53] linear =   111 [      6115] cuts =  0 [   0]
  --> max chng: dpmx=   8.0686E-01 dtmpmx=   1.0186E-01

== TH FLOW =====================================================================
 Step     47 Time=  1.75000E+00 Dt=  5.00000E-02 [y] snes_conv_reason:   11
  newton =   1 [      54] linear =   110 [      6225] cuts =  0 [   0]
  --> max chng: dpmx=   8.3134E-01 dtmpmx=   9.9013E-02

== TH FLOW =====================================================================
 Step     48 Time=  1.80000E+00 Dt=  5.00000E-02 [y] snes_conv_reason:   11
  newton =   1 [      55] linear =   110 [      6335] cuts =  0 [   0]
  --> max chng: dpmx=   8.5597E-01 dtmpmx=   9.6328E-02

== TH FLOW =====================================================================
 Step     49 Time=  1.85000E+00 Dt=  5.00000E-02 [y] snes_conv_reason:   11
  newton =   1 [      56] linear =   120 [      6455] cuts =  0 [   0]
  --> max chng: dpmx=   8.8077E-01 dtmpmx=   9.3751E-02

== TH FLOW =====================================================================
 Step     50 Time=  1.90000E+00 Dt=  5.00000E-02 [y] snes_conv_reason:   11
  newton =   1 [      57] linear =   114 [      6569] cuts =  0 [   0]
  --> max chng: dpmx=   9.0565E-01 dtmpmx=   9.1336E-02

== TH FLOW =====================================================================
 Step     51 Time=  1.95000E+00 Dt=  5.00000E-02 [y] snes_conv_reason:   11
  newton =   1 [      58] linear =   113 [      6682] cuts =  0 [   0]
  --> max chng: dpmx=   9.3091E-01 dtmpmx=   8.8998E-02

== TH FLOW =====================================================================
 Step     52 Time=  2.00000E+00 Dt=  5.00000E-02 [y] snes_conv_reason:   11
  newton =   1 [      59] linear =   113 [      6795] cuts =  0 [   0]
  --> max chng: dpmx=   9.5588E-01 dtmpmx=   8.6812E-02

== TH FLOW =====================================================================
 Step     53 Time=  2.05000E+00 Dt=  5.00000E-02 [y] snes_conv_reason:   11
  newton =   1 [      60] linear =   110 [      6905] cuts =  0 [   0]
  --> max chng: dpmx=   9.8086E-01 dtmpmx=   8.4695E-02

== TH FLOW =====================================================================
 Step     54 Time=  2.10000E+00 Dt=  5.00000E-02 [y] snes_conv_reason:    3
  newton =   1 [      61] linear =   109 [      7014] cuts =  0 [   0]
  --> max chng: dpmx=   1.0063E+00 dtmpmx=   8.2694E-02

== TH FLOW =====================================================================
 Step     55 Time=  2.15000E+00 Dt=  5.00000E-02 [y] snes_conv_reason:    3
  newton =   1 [      62] linear =   108 [      7122] cuts =  0 [   0]
  --> max chng: dpmx=   1.0316E+00 dtmpmx=   8.0768E-02

== TH FLOW =====================================================================
 Step     56 Time=  2.20000E+00 Dt=  5.00000E-02 [y] snes_conv_reason:    3
  newton =   1 [      63] linear =   108 [      7230] cuts =  0 [   0]
  --> max chng: dpmx=   1.0569E+00 dtmpmx=   7.8929E-02

== TH FLOW =====================================================================
 Step     57 Time=  2.25000E+00 Dt=  5.00000E-02 [y] snes_conv_reason:    3
  newton =   1 [      64] linear =   105 [      7335] cuts =  0 [   0]
  --> max chng: dpmx=   1.0824E+00 dtmpmx=   7.7171E-02

== TH FLOW =====================================================================
 Step     58 Time=  2.30000E+00 Dt=  5.00000E-02 [y] snes_conv_reason:    3
  newton =   1 [      65] linear =   109 [      7444] cuts =  0 [   0]
  --> max chng: dpmx=   1.1071E+00 dtmpmx=   7.5476E-02

== TH FLOW =====================================================================
 Step     59 Time=  2.35000E+00 Dt=  5.00000E-02 [y] snes_conv_reason:    3
  newton =   1 [      66] linear =   108 [      7552] cuts =  0 [   0]
  --> max chng: dpmx=   1.1327E+00 dtmpmx=   7.3865E-02

== TH FLOW =====================================================================
 Step     60 Time=  2.40000E+00 Dt=  5.00000E-02 [y] snes_conv_reason:    3
  newton =   1 [      67] linear =   108 [      7660] cuts =  0 [   0]
  --> max chng: dpmx=   1.1570E+00 dtmpmx=   7.2298E-02

== TH FLOW =====================================================================
 Step     61 Time=  2.45000E+00 Dt=  5.00000E-02 [y] snes_conv_reason:    3
  newton =   1 [      68] linear =   108 [      7768] cuts =  0 [   0]
  --> max chng: dpmx=   1.1812E+00 dtmpmx=   7.0818E-02

== TH FLOW =====================================================================
 Step     62 Time=  2.50000E+00 Dt=  5.00000E-02 [y] snes_conv_reason:    3
  newton =   1 [      69] linear =   112 [      7880] cuts =  0 [   0]
  --> max chng: dpmx=   1.2047E+00 dtmpmx=   6.9371E-02

== TH FLOW =====================================================================
 Step     63 Time=  2.55000E+00 Dt=  5.00000E-02 [y] snes_conv_reason:    3
  newton =   1 [      70] linear =   114 [      7994] cuts =  0 [   0]
  --> max chng: dpmx=   1.2274E+00 dtmpmx=   6.8000E-02

== TH FLOW =====================================================================
 Step     64 Time=  2.60000E+00 Dt=  5.00000E-02 [y] snes_conv_reason:    3
  newton =   1 [      71] linear =   110 [      8104] cuts =  0 [   0]
  --> max chng: dpmx=   1.2487E+00 dtmpmx=   6.6665E-02

== TH FLOW =====================================================================
 Step     65 Time=  2.65000E+00 Dt=  5.00000E-02 [y] snes_conv_reason:    3
  newton =   1 [      72] linear =   104 [      8208] cuts =  0 [   0]
  --> max chng: dpmx=   1.2687E+00 dtmpmx=   6.5388E-02

== TH FLOW =====================================================================
 Step     66 Time=  2.70000E+00 Dt=  5.00000E-02 [y] snes_conv_reason:    3
  newton =   1 [      73] linear =   103 [      8311] cuts =  0 [   0]
  --> max chng: dpmx=   1.2864E+00 dtmpmx=   6.4152E-02

== TH FLOW =====================================================================
 Step     67 Time=  2.75000E+00 Dt=  5.00000E-02 [y] snes_conv_reason:    3
  newton =   1 [      74] linear =   110 [      8421] cuts =  0 [   0]
  --> max chng: dpmx=   1.3021E+00 dtmpmx=   6.2960E-02

== TH FLOW =====================================================================
 Step     68 Time=  2.80000E+00 Dt=  5.00000E-02 [y] snes_conv_reason:    3
  newton =   1 [      75] linear =   113 [      8534] cuts =  0 [   0]
  --> max chng: dpmx=   1.3143E+00 dtmpmx=   6.1814E-02

== TH FLOW =====================================================================
 Step     69 Time=  2.85000E+00 Dt=  5.00000E-02 [y] snes_conv_reason:    3
  newton =   1 [      76] linear =   102 [      8636] cuts =  0 [   0]
  --> max chng: dpmx=   1.3231E+00 dtmpmx=   6.0699E-02

== TH FLOW =====================================================================
 Step     70 Time=  2.90000E+00 Dt=  5.00000E-02 [y] snes_conv_reason:    3
  newton =   1 [      77] linear =   106 [      8742] cuts =  0 [   0]
  --> max chng: dpmx=   1.3274E+00 dtmpmx=   5.9633E-02

== TH FLOW =====================================================================
 Step     71 Time=  2.95000E+00 Dt=  5.00000E-02 [y] snes_conv_reason:    3
  newton =   1 [      78] linear =   111 [      8853] cuts =  0 [   0]
  --> max chng: dpmx=   1.3272E+00 dtmpmx=   5.8588E-02

== TH FLOW =====================================================================
 Step     72 Time=  3.00000E+00 Dt=  5.00000E-02 [y] snes_conv_reason:    3
  newton =   1 [      79] linear =   113 [      8966] cuts =  0 [   0]
  --> max chng: dpmx=   1.3212E+00 dtmpmx=   5.7595E-02

== TH FLOW =====================================================================
 Step     73 Time=  3.05000E+00 Dt=  5.00000E-02 [y] snes_conv_reason:    3
  newton =   1 [      80] linear =   109 [      9075] cuts =  0 [   0]
  --> max chng: dpmx=   1.3094E+00 dtmpmx=   5.6619E-02

== TH FLOW =====================================================================
 Step     74 Time=  3.10000E+00 Dt=  5.00000E-02 [y] snes_conv_reason:    3
  newton =   1 [      81] linear =   112 [      9187] cuts =  0 [   0]
  --> max chng: dpmx=   1.2909E+00 dtmpmx=   5.5686E-02

== TH FLOW =====================================================================
 Step     75 Time=  3.15000E+00 Dt=  5.00000E-02 [y] snes_conv_reason:    3
  newton =   1 [      82] linear =   108 [      9295] cuts =  0 [   0]
  --> max chng: dpmx=   1.2660E+00 dtmpmx=   5.4774E-02

== TH FLOW =====================================================================
 Step     76 Time=  3.20000E+00 Dt=  5.00000E-02 [y] snes_conv_reason:    3
  newton =   1 [      83] linear =   103 [      9398] cuts =  0 [   0]
  --> max chng: dpmx=   1.2336E+00 dtmpmx=   5.3895E-02

== TH FLOW =====================================================================
 Step     77 Time=  3.25000E+00 Dt=  5.00000E-02 [y] snes_conv_reason:    3
  newton =   1 [      84] linear =   113 [      9511] cuts =  0 [   0]
  --> max chng: dpmx=   1.1950E+00 dtmpmx=   5.3041E-02

== TH FLOW =====================================================================
 Step     78 Time=  3.30000E+00 Dt=  5.00000E-02 [y] snes_conv_reason:    3
  newton =   1 [      85] linear =   112 [      9623] cuts =  0 [   0]
  --> max chng: dpmx=   1.1494E+00 dtmpmx=   5.2211E-02

== TH FLOW =====================================================================
 Step     79 Time=  3.35000E+00 Dt=  5.00000E-02 [y] snes_conv_reason:    3
  newton =   1 [      86] linear =   113 [      9736] cuts =  0 [   0]
  --> max chng: dpmx=   1.0976E+00 dtmpmx=   5.1410E-02

== TH FLOW =====================================================================
 Step     80 Time=  3.40000E+00 Dt=  5.00000E-02 [y] snes_conv_reason:    3
  newton =   1 [      87] linear =   114 [      9850] cuts =  0 [   0]
  --> max chng: dpmx=   1.0401E+00 dtmpmx=   5.0626E-02

== TH FLOW =====================================================================
 Step     81 Time=  3.45000E+00 Dt=  5.00000E-02 [y] snes_conv_reason:   11
  newton =   1 [      88] linear =   111 [      9961] cuts =  0 [   0]
  --> max chng: dpmx=   9.7813E-01 dtmpmx=   4.9873E-02

== TH FLOW =====================================================================
 Step     82 Time=  3.50000E+00 Dt=  5.00000E-02 [y] snes_conv_reason:   11
  newton =   1 [      89] linear =   114 [     10075] cuts =  0 [   0]
  --> max chng: dpmx=   9.1237E-01 dtmpmx=   4.9131E-02

== TH FLOW =====================================================================
 Step     83 Time=  3.55000E+00 Dt=  5.00000E-02 [y] snes_conv_reason:   11
  newton =   1 [      90] linear =   112 [     10187] cuts =  0 [   0]
  --> max chng: dpmx=   8.4393E-01 dtmpmx=   4.8423E-02

== TH FLOW =====================================================================
 Step     84 Time=  3.60000E+00 Dt=  5.00000E-02 [y] snes_conv_reason:   11
  newton =   1 [      91] linear =   109 [     10296] cuts =  0 [   0]
  --> max chng: dpmx=   7.7405E-01 dtmpmx=   4.7722E-02

== TH FLOW =====================================================================
 Step     85 Time=  3.65000E+00 Dt=  5.00000E-02 [y] snes_conv_reason:   11
  newton =   1 [      92] linear =   114 [     10410] cuts =  0 [   0]
  --> max chng: dpmx=   7.0374E-01 dtmpmx=   4.6663E-02

== TH FLOW =====================================================================
 Step     86 Time=  3.70000E+00 Dt=  5.00000E-02 [y] snes_conv_reason:   11
  newton =   1 [      93] linear =   116 [     10526] cuts =  0 [   0]
  --> max chng: dpmx=   6.3442E-01 dtmpmx=   4.5077E-02

== TH FLOW =====================================================================
 Step     87 Time=  3.75000E+00 Dt=  5.00000E-02 [y] snes_conv_reason:   11
  newton =   1 [      94] linear =   112 [     10638] cuts =  0 [   0]
  --> max chng: dpmx=   5.6680E-01 dtmpmx=   4.3136E-02

== TH FLOW =====================================================================
 Step     88 Time=  3.80000E+00 Dt=  5.00000E-02 [y] snes_conv_reason:   11
  newton =   1 [      95] linear =   119 [     10757] cuts =  0 [   0]
  --> max chng: dpmx=   5.0199E-01 dtmpmx=   4.0773E-02

== TH FLOW =====================================================================
 Step     89 Time=  3.85000E+00 Dt=  5.00000E-02 [y] snes_conv_reason:   11
  newton =   1 [      96] linear =   120 [     10877] cuts =  0 [   0]
  --> max chng: dpmx=   4.4065E-01 dtmpmx=   3.8079E-02

== TH FLOW =====================================================================
 Step     90 Time=  3.90000E+00 Dt=  5.00000E-02 [y] snes_conv_reason:   11
  newton =   1 [      97] linear =   119 [     10996] cuts =  0 [   0]
  --> max chng: dpmx=   3.8335E-01 dtmpmx=   3.5148E-02

== TH FLOW =====================================================================
 Step     91 Time=  3.95000E+00 Dt=  5.00000E-02 [y] snes_conv_reason:   11
  newton =   1 [      98] linear =   118 [     11114] cuts =  0 [   0]
  --> max chng: dpmx=   3.3063E-01 dtmpmx=   3.2073E-02

== TH FLOW =====================================================================
 Step     92 Time=  4.00000E+00 Dt=  5.00000E-02 [y] snes_conv_reason:   11
  newton =   1 [      99] linear =   121 [     11235] cuts =  0 [   0]
  --> max chng: dpmx=   2.8260E-01 dtmpmx=   2.8942E-02

== TH FLOW =====================================================================
 Step     93 Time=  4.05000E+00 Dt=  5.00000E-02 [y] snes_conv_reason:   11
  newton =   1 [     100] linear =   118 [     11353] cuts =  0 [   0]
  --> max chng: dpmx=   2.3947E-01 dtmpmx=   2.5833E-02

== TH FLOW =====================================================================
 Step     94 Time=  4.10000E+00 Dt=  5.00000E-02 [y] snes_conv_reason:   11
  newton =   1 [     101] linear =   115 [     11468] cuts =  0 [   0]
  --> max chng: dpmx=   2.0126E-01 dtmpmx=   2.2814E-02

== TH FLOW =====================================================================
 Step     95 Time=  4.15000E+00 Dt=  5.00000E-02 [y] snes_conv_reason:   11
  newton =   1 [     102] linear =   120 [     11588] cuts =  0 [   0]
  --> max chng: dpmx=   1.6754E-01 dtmpmx=   1.9939E-02

== TH FLOW =====================================================================
 Step     96 Time=  4.20000E+00 Dt=  5.00000E-02 [y] snes_conv_reason:   11
  newton =   1 [     103] linear =   117 [     11705] cuts =  0 [   0]
  --> max chng: dpmx=   1.3839E-01 dtmpmx=   1.7250E-02

== TH FLOW =====================================================================
 Step     97 Time=  4.25000E+00 Dt=  5.00000E-02 [y] snes_conv_reason:   11
  newton =   1 [     104] linear =   119 [     11824] cuts =  0 [   0]
  --> max chng: dpmx=   1.1328E-01 dtmpmx=   1.4776E-02

== TH FLOW =====================================================================
 Step     98 Time=  4.30000E+00 Dt=  5.00000E-02 [y] snes_conv_reason:   11
  newton =   1 [     105] linear =   117 [     11941] cuts =  0 [   0]
  --> max chng: dpmx=   9.2004E-02 dtmpmx=   1.2534E-02

== TH FLOW =====================================================================
 Step     99 Time=  4.35000E+00 Dt=  5.00000E-02 [y] snes_conv_reason:   11
  newton =   1 [     106] linear =   122 [     12063] cuts =  0 [   0]
  --> max chng: dpmx=   7.4020E-02 dtmpmx=   1.0531E-02

== TH FLOW =====================================================================
 Step    100 Time=  4.40000E+00 Dt=  5.00000E-02 [y] snes_conv_reason:   11
  newton =   1 [     107] linear =   123 [     12186] cuts =  0 [   0]
  --> max chng: dpmx=   5.9102E-02 dtmpmx=   8.7651E-03

== TH FLOW =====================================================================
 Step    101 Time=  4.45000E+00 Dt=  5.00000E-02 [y] snes_conv_reason:   11
  newton =   1 [     108] linear =   119 [     12305] cuts =  0 [   0]
  --> max chng: dpmx=   4.6771E-02 dtmpmx=   7.2283E-03

== TH FLOW =====================================================================
 Step    102 Time=  4.50000E+00 Dt=  5.00000E-02 [y] snes_conv_reason:   11
  newton =   1 [     109] linear =   122 [     12427] cuts =  0 [   0]
  --> max chng: dpmx=   3.6693E-02 dtmpmx=   5.9067E-03

== TH FLOW =====================================================================
 Step    103 Time=  4.55000E+00 Dt=  5.00000E-02 [y] snes_conv_reason:   11
  newton =   1 [     110] linear =   123 [     12550] cuts =  0 [   0]
  --> max chng: dpmx=   2.8540E-02 dtmpmx=   4.7831E-03

== TH FLOW =====================================================================
 Step    104 Time=  4.60000E+00 Dt=  5.00000E-02 [y] snes_conv_reason:   11
  newton =   1 [     111] linear =   123 [     12673] cuts =  0 [   0]
  --> max chng: dpmx=   2.1999E-02 dtmpmx=   3.8385E-03

== TH FLOW =====================================================================
 Step    105 Time=  4.65000E+00 Dt=  5.00000E-02 [y] snes_conv_reason:   11
  newton =   1 [     112] linear =   124 [     12797] cuts =  0 [   0]
  --> max chng: dpmx=   1.6797E-02 dtmpmx=   3.0527E-03

== TH FLOW =====================================================================
 Step    106 Time=  4.70000E+00 Dt=  5.00000E-02 [y] snes_conv_reason:   11
  newton =   1 [     113] linear =   126 [     12923] cuts =  0 [   0]
  --> max chng: dpmx=   1.2705E-02 dtmpmx=   2.4056E-03

== TH FLOW =====================================================================
 Step    107 Time=  4.75000E+00 Dt=  5.00000E-02 [y] snes_conv_reason:   11
  newton =   1 [     114] linear =   123 [     13046] cuts =  0 [   0]
  --> max chng: dpmx=   9.5022E-03 dtmpmx=   1.8782E-03

== TH FLOW =====================================================================
 Step    108 Time=  4.80000E+00 Dt=  5.00000E-02 [y] snes_conv_reason:   11
  newton =   1 [     115] linear =   118 [     13164] cuts =  0 [   0]
  --> max chng: dpmx=   7.0296E-03 dtmpmx=   1.4523E-03

== TH FLOW =====================================================================
 Step    109 Time=  4.85000E+00 Dt=  5.00000E-02 [y] snes_conv_reason:   11
  newton =   1 [     116] linear =   122 [     13286] cuts =  0 [   0]
  --> max chng: dpmx=   5.1337E-03 dtmpmx=   1.1117E-03

== TH FLOW =====================================================================
 Step    110 Time=  4.90000E+00 Dt=  5.00000E-02 [y] snes_conv_reason:   11
  newton =   1 [     117] linear =   126 [     13412] cuts =  0 [   0]
  --> max chng: dpmx=   3.6933E-03 dtmpmx=   8.4168E-04

== TH FLOW =====================================================================
 Step    111 Time=  4.95000E+00 Dt=  5.00000E-02 [y] snes_conv_reason:   11
  newton =   1 [     118] linear =   124 [     13536] cuts =  0 [   0]
  --> max chng: dpmx=   2.6136E-03 dtmpmx=   6.2958E-04

== TH FLOW =====================================================================
 Step    112 Time=  5.00000E+00 Dt=  5.00000E-02 [y] snes_conv_reason:   11
  newton =   1 [     119] linear =   122 [     13658] cuts =  0 [   0]
  --> max chng: dpmx=   1.8125E-03 dtmpmx=   4.6438E-04

== TH FLOW =====================================================================
 Step    113 Time=  5.05000E+00 Dt=  5.00000E-02 [y] snes_conv_reason:   11
  newton =   1 [     120] linear =   122 [     13780] cuts =  0 [   0]
  --> max chng: dpmx=   1.2270E-03 dtmpmx=   3.3679E-04

== TH FLOW =====================================================================
 Step    114 Time=  5.10000E+00 Dt=  5.00000E-02 [y] snes_conv_reason:   11
  newton =   1 [     121] linear =   123 [     13903] cuts =  0 [   0]
  --> max chng: dpmx=   1.4358E-03 dtmpmx=   2.3905E-04

== TH FLOW =====================================================================
 Step    115 Time=  5.15000E+00 Dt=  5.00000E-02 [y] snes_conv_reason:   11
  newton =   1 [     122] linear =   119 [     14022] cuts =  0 [   0]
  --> max chng: dpmx=   1.5943E-03 dtmpmx=   1.6476E-04

== TH FLOW =====================================================================
 Step    116 Time=  5.20000E+00 Dt=  5.00000E-02 [y] snes_conv_reason:   11
  newton =   1 [     123] linear =   110 [     14132] cuts =  0 [   0]
  --> max chng: dpmx=   1.7080E-03 dtmpmx=   1.0873E-04

== TH FLOW =====================================================================
 Step    117 Time=  5.25000E+00 Dt=  5.00000E-02 [y] snes_conv_reason:   11
  newton =   1 [     124] linear =   103 [     14235] cuts =  0 [   0]
  --> max chng: dpmx=   1.7855E-03 dtmpmx=   6.6787E-05

== TH FLOW =====================================================================
 Step    118 Time=  5.30000E+00 Dt=  5.00000E-02 [y] snes_conv_reason:   11
  newton =   1 [     125] linear =   111 [     14346] cuts =  0 [   0]
  --> max chng: dpmx=   1.8348E-03 dtmpmx=   4.8645E-05

== TH FLOW =====================================================================
 Step    119 Time=  5.35000E+00 Dt=  5.00000E-02 [y] snes_conv_reason:   11
  newton =   1 [     126] linear =   107 [     14453] cuts =  0 [   0]
  --> max chng: dpmx=   1.8617E-03 dtmpmx=   4.8466E-05

== TH FLOW =====================================================================
 Step    120 Time=  5.40000E+00 Dt=  5.00000E-02 [y] snes_conv_reason:   11
  newton =   1 [     127] linear =   110 [     14563] cuts =  0 [   0]
  --> max chng: dpmx=   1.8705E-03 dtmpmx=   4.8287E-05

== TH FLOW =====================================================================
 Step    121 Time=  5.45000E+00 Dt=  5.00000E-02 [y] snes_conv_reason:   11
  newton =   1 [     128] linear =   109 [     14672] cuts =  0 [   0]
  --> max chng: dpmx=   1.8661E-03 dtmpmx=   4.8103E-05

== TH FLOW =====================================================================
 Step    122 Time=  5.50000E+00 Dt=  5.00000E-02 [y] snes_conv_reason:   11
  newton =   1 [     129] linear =   109 [     14781] cuts =  0 [   0]
  --> max chng: dpmx=   1.8513E-03 dtmpmx=   4.7917E-05

== TH FLOW =====================================================================
 Step    123 Time=  5.55000E+00 Dt=  5.00000E-02 [y] snes_conv_reason:   11
  newton =   1 [     130] linear =   109 [     14890] cuts =  0 [   0]
  --> max chng: dpmx=   1.8280E-03 dtmpmx=   4.7727E-05

== TH FLOW =====================================================================
 Step    124 Time=  5.60000E+00 Dt=  5.00000E-02 [y] snes_conv_reason:   11
  newton =   1 [     131] linear =   104 [     14994] cuts =  0 [   0]
  --> max chng: dpmx=   1.7980E-03 dtmpmx=   4.7535E-05

== TH FLOW =====================================================================
 Step    125 Time=  5.65000E+00 Dt=  5.00000E-02 [y] snes_conv_reason:   11
  newton =   1 [     132] linear =   111 [     15105] cuts =  0 [   0]
  --> max chng: dpmx=   1.7625E-03 dtmpmx=   4.7338E-05

== TH FLOW =====================================================================
 Step    126 Time=  5.70000E+00 Dt=  5.00000E-02 [y] snes_conv_reason:   11
  newton =   1 [     133] linear =   105 [     15210] cuts =  0 [   0]
  --> max chng: dpmx=   1.7227E-03 dtmpmx=   4.7139E-05

== TH FLOW =====================================================================
 Step    127 Time=  5.75000E+00 Dt=  5.00000E-02 [y] snes_conv_reason:   11
  newton =   1 [     134] linear =    96 [     15306] cuts =  0 [   0]
  --> max chng: dpmx=   1.6789E-03 dtmpmx=   4.6935E-05

== TH FLOW =====================================================================
 Step    128 Time=  5.80000E+00 Dt=  5.00000E-02 [y] snes_conv_reason:   11
  newton =   1 [     135] linear =   103 [     15409] cuts =  0 [   0]
  --> max chng: dpmx=   1.6322E-03 dtmpmx=   4.6727E-05

== TH FLOW =====================================================================
 Step    129 Time=  5.85000E+00 Dt=  5.00000E-02 [y] snes_conv_reason:   11
  newton =   1 [     136] linear =   106 [     15515] cuts =  0 [   0]
  --> max chng: dpmx=   1.5824E-03 dtmpmx=   4.6516E-05

== TH FLOW =====================================================================
 Step    130 Time=  5.90000E+00 Dt=  5.00000E-02 [y] snes_conv_reason:   11
  newton =   1 [     137] linear =   102 [     15617] cuts =  0 [   0]
  --> max chng: dpmx=   1.5308E-03 dtmpmx=   4.6302E-05

== TH FLOW =====================================================================
 Step    131 Time=  5.95000E+00 Dt=  5.00000E-02 [y] snes_conv_reason:   11
  newton =   1 [     138] linear =   106 [     15723] cuts =  0 [   0]
  --> max chng: dpmx=   1.4767E-03 dtmpmx=   4.6084E-05

== TH FLOW =====================================================================
 Step    132 Time=  6.00000E+00 Dt=  5.00000E-02 [y] snes_conv_reason:   11
  newton =   1 [     139] linear =   105 [     15828] cuts =  0 [   0]
  --> max chng: dpmx=   1.4210E-03 dtmpmx=   4.5861E-05

== TH FLOW =====================================================================
 Step    133 Time=  6.05000E+00 Dt=  5.00000E-02 [y] snes_conv_reason:   11
  newton =   1 [     140] linear =   102 [     15930] cuts =  0 [   0]
  --> max chng: dpmx=   1.3639E-03 dtmpmx=   4.5544E-05

== TH FLOW =====================================================================
 Step    134 Time=  6.10000E+00 Dt=  5.00000E-02 [y] snes_conv_reason:   11
  newton =   1 [     141] linear =   109 [     16039] cuts =  0 [   0]
  --> max chng: dpmx=   1.3056E-03 dtmpmx=   4.5085E-05

== TH FLOW =====================================================================
 Step    135 Time=  6.15000E+00 Dt=  5.00000E-02 [y] snes_conv_reason:   11
  newton =   1 [     142] linear =   111 [     16150] cuts =  0 [   0]
  --> max chng: dpmx=   1.2468E-03 dtmpmx=   4.4495E-05

== TH FLOW =====================================================================
 Step    136 Time=  6.20000E+00 Dt=  5.00000E-02 [y] snes_conv_reason:   11
  newton =   1 [     143] linear =   110 [     16260] cuts =  0 [   0]
  --> max chng: dpmx=   1.1871E-03 dtmpmx=   4.3783E-05

== TH FLOW =====================================================================
 Step    137 Time=  6.25000E+00 Dt=  5.00000E-02 [y] snes_conv_reason:   11
  newton =   1 [     144] linear =   110 [     16370] cuts =  0 [   0]
  --> max chng: dpmx=   1.1270E-03 dtmpmx=   4.2953E-05

== TH FLOW =====================================================================
 Step    138 Time=  6.30000E+00 Dt=  5.00000E-02 [y] snes_conv_reason:   11
  newton =   1 [     145] linear =   113 [     16483] cuts =  0 [   0]
  --> max chng: dpmx=   1.0672E-03 dtmpmx=   4.2013E-05

== TH FLOW =====================================================================
 Step    139 Time=  6.35000E+00 Dt=  5.00000E-02 [y] snes_conv_reason:   11
  newton =   1 [     146] linear =   111 [     16594] cuts =  0 [   0]
  --> max chng: dpmx=   1.0071E-03 dtmpmx=   4.0966E-05

== TH FLOW =====================================================================
 Step    140 Time=  6.40000E+00 Dt=  5.00000E-02 [y] snes_conv_reason:   11
  newton =   1 [     147] linear =   111 [     16705] cuts =  0 [   0]
  --> max chng: dpmx=   9.4772E-04 dtmpmx=   3.9831E-05

== TH FLOW =====================================================================
 Step    141 Time=  6.45000E+00 Dt=  5.00000E-02 [y] snes_conv_reason:   11
  newton =   1 [     148] linear =   114 [     16819] cuts =  0 [   0]
  --> max chng: dpmx=   8.8923E-04 dtmpmx=   3.8625E-05

== TH FLOW =====================================================================
 Step    142 Time=  6.50000E+00 Dt=  5.00000E-02 [y] snes_conv_reason:   11
  newton =   1 [     149] linear =   111 [     16930] cuts =  0 [   0]
  --> max chng: dpmx=   8.3128E-04 dtmpmx=   3.7330E-05

== TH FLOW =====================================================================
 Step    143 Time=  6.55000E+00 Dt=  5.00000E-02 [y] snes_conv_reason:   11
  newton =   1 [     150] linear =   109 [     17039] cuts =  0 [   0]
  --> max chng: dpmx=   7.7510E-04 dtmpmx=   3.5956E-05

== TH FLOW =====================================================================
 Step    144 Time=  6.60000E+00 Dt=  5.00000E-02 [y] snes_conv_reason:   11
  newton =   1 [     151] linear =   115 [     17154] cuts =  0 [   0]
  --> max chng: dpmx=   7.1993E-04 dtmpmx=   3.4509E-05

== TH FLOW =====================================================================
 Step    145 Time=  6.65000E+00 Dt=  5.00000E-02 [y] snes_conv_reason:   11
  newton =   1 [     152] linear =   113 [     17267] cuts =  0 [   0]
  --> max chng: dpmx=   6.6671E-04 dtmpmx=   3.3002E-05

== TH FLOW =====================================================================
 Step    146 Time=  6.70000E+00 Dt=  5.00000E-02 [y] snes_conv_reason:   11
  newton =   1 [     153] linear =   113 [     17380] cuts =  0 [   0]
  --> max chng: dpmx=   6.1502E-04 dtmpmx=   3.1443E-05

== TH FLOW =====================================================================
 Step    147 Time=  6.75000E+00 Dt=  5.00000E-02 [y] snes_conv_reason:   11
  newton =   1 [     154] linear =   112 [     17492] cuts =  0 [   0]
  --> max chng: dpmx=   5.6556E-04 dtmpmx=   2.9845E-05

== TH FLOW =====================================================================
 Step    148 Time=  6.80000E+00 Dt=  5.00000E-02 [y] snes_conv_reason:   11
  newton =   1 [     155] linear =   116 [     17608] cuts =  0 [   0]
  --> max chng: dpmx=   5.1820E-04 dtmpmx=   2.8218E-05

== TH FLOW =====================================================================
 Step    149 Time=  6.85000E+00 Dt=  5.00000E-02 [y] snes_conv_reason:   11
  newton =   1 [     156] linear =   111 [     17719] cuts =  0 [   0]
  --> max chng: dpmx=   4.7302E-04 dtmpmx=   2.6575E-05

== TH FLOW =====================================================================
 Step    150 Time=  6.90000E+00 Dt=  5.00000E-02 [y] snes_conv_reason:   11
  newton =   1 [     157] linear =   116 [     17835] cuts =  0 [   0]
  --> max chng: dpmx=   4.3018E-04 dtmpmx=   2.4927E-05

== TH FLOW =====================================================================
 Step    151 Time=  6.95000E+00 Dt=  5.00000E-02 [y] snes_conv_reason:   11
  newton =   1 [     158] linear =   118 [     17953] cuts =  0 [   0]
  --> max chng: dpmx=   3.8984E-04 dtmpmx=   2.3286E-05

== TH FLOW =====================================================================
 Step    152 Time=  7.00000E+00 Dt=  5.00000E-02 [y] snes_conv_reason:   11
  newton =   1 [     159] linear =   116 [     18069] cuts =  0 [   0]
  --> max chng: dpmx=   3.5192E-04 dtmpmx=   2.1664E-05

== TH FLOW =====================================================================
 Step    153 Time=  7.05000E+00 Dt=  5.00000E-02 [y] snes_conv_reason:   11
  newton =   1 [     160] linear =   115 [     18184] cuts =  0 [   0]
  --> max chng: dpmx=   3.1641E-04 dtmpmx=   2.0070E-05

== TH FLOW =====================================================================
 Step    154 Time=  7.10000E+00 Dt=  5.00000E-02 [y] snes_conv_reason:   11
  newton =   1 [     161] linear =   114 [     18298] cuts =  0 [   0]
  --> max chng: dpmx=   2.8343E-04 dtmpmx=   1.8515E-05

== TH FLOW =====================================================================
 Step    155 Time=  7.15000E+00 Dt=  5.00000E-02 [y] snes_conv_reason:   11
  newton =   1 [     162] linear =   117 [     18415] cuts =  0 [   0]
  --> max chng: dpmx=   2.5285E-04 dtmpmx=   1.7007E-05

== TH FLOW =====================================================================
 Step    156 Time=  7.20000E+00 Dt=  5.00000E-02 [y] snes_conv_reason:   11
  newton =   1 [     163] linear =   116 [     18531] cuts =  0 [   0]
  --> max chng: dpmx=   2.2472E-04 dtmpmx=   1.5555E-05

== TH FLOW =====================================================================
 Step    157 Time=  7.25000E+00 Dt=  5.00000E-02 [y] snes_conv_reason:   11
  newton =   1 [     164] linear =   118 [     18649] cuts =  0 [   0]
  --> max chng: dpmx=   1.9886E-04 dtmpmx=   1.4164E-05

== TH FLOW =====================================================================
 Step    158 Time=  7.30000E+00 Dt=  5.00000E-02 [y] snes_conv_reason:   11
  newton =   1 [     165] linear =   118 [     18767] cuts =  0 [   0]
  --> max chng: dpmx=   1.7528E-04 dtmpmx=   1.2841E-05

== TH FLOW =====================================================================
 Step    159 Time=  7.35000E+00 Dt=  5.00000E-02 [y] snes_conv_reason:   11
  newton =   1 [     166] linear =   119 [     18886] cuts =  0 [   0]
  --> max chng: dpmx=   1.5382E-04 dtmpmx=   1.1589E-05

== TH FLOW =====================================================================
 Step    160 Time=  7.40000E+00 Dt=  5.00000E-02 [y] snes_conv_reason:   11
  newton =   1 [     167] linear =   117 [     19003] cuts =  0 [   0]
  --> max chng: dpmx=   1.3447E-04 dtmpmx=   1.0413E-05

== TH FLOW =====================================================================
 Step    161 Time=  7.45000E+00 Dt=  5.00000E-02 [y] snes_conv_reason:   11
  newton =   1 [     168] linear =   119 [     19122] cuts =  0 [   0]
  --> max chng: dpmx=   1.1695E-04 dtmpmx=   9.3137E-06

== TH FLOW =====================================================================
 Step    162 Time=  7.50000E+00 Dt=  5.00000E-02 [y] snes_conv_reason:   11
  newton =   1 [     169] linear =   118 [     19240] cuts =  0 [   0]
  --> max chng: dpmx=   1.0134E-04 dtmpmx=   8.2923E-06

== TH FLOW =====================================================================
 Step    163 Time=  7.55000E+00 Dt=  5.00000E-02 [y] snes_conv_reason:   11
  newton =   1 [     170] linear =   120 [     19360] cuts =  0 [   0]
  --> max chng: dpmx=   8.7383E-05 dtmpmx=   7.3489E-06

== TH FLOW =====================================================================
 Step    164 Time=  7.60000E+00 Dt=  5.00000E-02 [y] snes_conv_reason:   11
  newton =   1 [     171] linear =   118 [     19478] cuts =  0 [   0]
  --> max chng: dpmx=   7.5031E-05 dtmpmx=   6.4824E-06

== TH FLOW =====================================================================
 Step    165 Time=  7.65000E+00 Dt=  5.00000E-02 [y] snes_conv_reason:   11
  newton =   1 [     172] linear =   119 [     19597] cuts =  0 [   0]
  --> max chng: dpmx=   6.4066E-05 dtmpmx=   5.6910E-06

== TH FLOW =====================================================================
 Step    166 Time=  7.70000E+00 Dt=  5.00000E-02 [y] snes_conv_reason:   11
  newton =   1 [     173] linear =   123 [     19720] cuts =  0 [   0]
  --> max chng: dpmx=   5.4485E-05 dtmpmx=   4.9722E-06

== TH FLOW =====================================================================
 Step    167 Time=  7.75000E+00 Dt=  5.00000E-02 [y] snes_conv_reason:   11
  newton =   1 [     174] linear =   122 [     19842] cuts =  0 [   0]
  --> max chng: dpmx=   4.6075E-05 dtmpmx=   4.3231E-06

== TH FLOW =====================================================================
 Step    168 Time=  7.80000E+00 Dt=  5.00000E-02 [y] snes_conv_reason:   11
  newton =   1 [     175] linear =   120 [     19962] cuts =  0 [   0]
  --> max chng: dpmx=   3.8764E-05 dtmpmx=   3.7400E-06

== TH FLOW =====================================================================
 Step    169 Time=  7.85000E+00 Dt=  5.00000E-02 [y] snes_conv_reason:   11
  newton =   1 [     176] linear =   122 [     20084] cuts =  0 [   0]
  --> max chng: dpmx=   3.2422E-05 dtmpmx=   3.2191E-06

== TH FLOW =====================================================================
 Step    170 Time=  7.90000E+00 Dt=  5.00000E-02 [y] snes_conv_reason:   11
  newton =   1 [     177] linear =   120 [     20204] cuts =  0 [   0]
  --> max chng: dpmx=   2.6963E-05 dtmpmx=   2.7563E-06

== TH FLOW =====================================================================
 Step    171 Time=  7.95000E+00 Dt=  5.00000E-02 [y] snes_conv_reason:   11
  newton =   1 [     178] linear =   124 [     20328] cuts =  0 [   0]
  --> max chng: dpmx=   2.2286E-05 dtmpmx=   2.3471E-06

== TH FLOW =====================================================================
 Step    172 Time=  8.00000E+00 Dt=  5.00000E-02 [y] snes_conv_reason:   11
  newton =   1 [     179] linear =   123 [     20451] cuts =  0 [   0]
  --> max chng: dpmx=   1.8290E-05 dtmpmx=   1.9875E-06

== TH FLOW =====================================================================
 Step    173 Time=  8.05000E+00 Dt=  5.00000E-02 [y] snes_conv_reason:   11
  newton =   1 [     180] linear =   120 [     20571] cuts =  0 [   0]
  --> max chng: dpmx=   1.4903E-05 dtmpmx=   1.6731E-06

== TH FLOW =====================================================================
 Step    174 Time=  8.10000E+00 Dt=  5.00000E-02 [y] snes_conv_reason:   11
  newton =   1 [     181] linear =   124 [     20695] cuts =  0 [   0]
  --> max chng: dpmx=   1.2043E-05 dtmpmx=   1.3995E-06

== TH FLOW =====================================================================
 Step    175 Time=  8.15000E+00 Dt=  5.00000E-02 [y] snes_conv_reason:   11
  newton =   1 [     182] linear =   126 [     20821] cuts =  0 [   0]
  --> max chng: dpmx=   9.6494E-06 dtmpmx=   1.1628E-06

== TH FLOW =====================================================================
 Step    176 Time=  8.20000E+00 Dt=  5.00000E-02 [y] snes_conv_reason:   11
  newton =   1 [     183] linear =   123 [     20944] cuts =  0 [   0]
  --> max chng: dpmx=   7.6512E-06 dtmpmx=   9.5911E-07

== TH FLOW =====================================================================
 Step    177 Time=  8.25000E+00 Dt=  5.00000E-02 [y] snes_conv_reason:   11
  newton =   1 [     184] linear =   124 [     21068] cuts =  0 [   0]
  --> max chng: dpmx=   5.9976E-06 dtmpmx=   7.8478E-07

== TH FLOW =====================================================================
 Step    178 Time=  8.30000E+00 Dt=  5.00000E-02 [y] snes_conv_reason:   11
  newton =   1 [     185] linear =   125 [     21193] cuts =  0 [   0]
  --> max chng: dpmx=   4.6411E-06 dtmpmx=   6.3624E-07

== TH FLOW =====================================================================
 Step    179 Time=  8.35000E+00 Dt=  5.00000E-02 [y] snes_conv_reason:   11
  newton =   1 [     186] linear =   124 [     21317] cuts =  0 [   0]
  --> max chng: dpmx=   3.5366E-06 dtmpmx=   5.1047E-07

== TH FLOW =====================================================================
 Step    180 Time=  8.40000E+00 Dt=  5.00000E-02 [y] snes_conv_reason:   11
  newton =   1 [     187] linear =   122 [     21439] cuts =  0 [   0]
  --> max chng: dpmx=   2.6469E-06 dtmpmx=   4.0463E-07

== TH FLOW =====================================================================
 Step    181 Time=  8.45000E+00 Dt=  5.00000E-02 [y] snes_conv_reason:   11
  newton =   1 [     188] linear =   120 [     21559] cuts =  0 [   0]
  --> max chng: dpmx=   1.9395E-06 dtmpmx=   3.1596E-07

== TH FLOW =====================================================================
 Step    182 Time=  8.50000E+00 Dt=  5.00000E-02 [y] snes_conv_reason:   11
  newton =   1 [     189] linear =   124 [     21683] cuts =  0 [   0]
  --> max chng: dpmx=   1.3841E-06 dtmpmx=   2.4213E-07

== TH FLOW =====================================================================
 Step    183 Time=  8.55000E+00 Dt=  5.00000E-02 [y] snes_conv_reason:   11
  newton =   1 [     190] linear =   123 [     21806] cuts =  0 [   0]
  --> max chng: dpmx=   1.2033E-06 dtmpmx=   1.8106E-07

== TH FLOW =====================================================================
 Step    184 Time=  8.60000E+00 Dt=  5.00000E-02 [y] snes_conv_reason:   11
  newton =   1 [     191] linear =   121 [     21927] cuts =  0 [   0]
  --> max chng: dpmx=   1.3863E-06 dtmpmx=   1.3089E-07

== TH FLOW =====================================================================
 Step    185 Time=  8.65000E+00 Dt=  5.00000E-02 [y] snes_conv_reason:   11
  newton =   1 [     192] linear =   120 [     22047] cuts =  0 [   0]
  --> max chng: dpmx=   1.5231E-06 dtmpmx=   8.9906E-08

== TH FLOW =====================================================================
 Step    186 Time=  8.70000E+00 Dt=  5.00000E-02 [y] snes_conv_reason:   11
  newton =   1 [     193] linear =   122 [     22169] cuts =  0 [   0]
  --> max chng: dpmx=   1.6189E-06 dtmpmx=   5.7168E-08

== TH FLOW =====================================================================
 Step    187 Time=  8.75000E+00 Dt=  5.00000E-02 [y] snes_conv_reason:   11
  newton =   1 [     194] linear =   108 [     22277] cuts =  0 [   0]
  --> max chng: dpmx=   1.6791E-06 dtmpmx=   5.6604E-08

== TH FLOW =====================================================================
 Step    188 Time=  8.80000E+00 Dt=  5.00000E-02 [y] snes_conv_reason:   11
  newton =   1 [     195] linear =   117 [     22394] cuts =  0 [   0]
  --> max chng: dpmx=   1.7096E-06 dtmpmx=   5.5995E-08

== TH FLOW =====================================================================
 Step    189 Time=  8.85000E+00 Dt=  5.00000E-02 [y] snes_conv_reason:   11
  newton =   1 [     196] linear =   114 [     22508] cuts =  0 [   0]
  --> max chng: dpmx=   1.7156E-06 dtmpmx=   5.5444E-08

== TH FLOW =====================================================================
 Step    190 Time=  8.90000E+00 Dt=  5.00000E-02 [y] snes_conv_reason:   11
  newton =   1 [     197] linear =   106 [     22614] cuts =  0 [   0]
  --> max chng: dpmx=   1.7012E-06 dtmpmx=   5.4865E-08

== TH FLOW =====================================================================
 Step    191 Time=  8.95000E+00 Dt=  5.00000E-02 [y] snes_conv_reason:   11
  newton =   1 [     198] linear =   114 [     22728] cuts =  0 [   0]
  --> max chng: dpmx=   1.6717E-06 dtmpmx=   5.4284E-08

== TH FLOW =====================================================================
 Step    192 Time=  9.00000E+00 Dt=  5.00000E-02 [y] snes_conv_reason:   11
  newton =   1 [     199] linear =   111 [     22839] cuts =  0 [   0]
  --> max chng: dpmx=   1.6292E-06 dtmpmx=   5.3674E-08

== TH FLOW =====================================================================
 Step    193 Time=  9.05000E+00 Dt=  5.00000E-02 [y] snes_conv_reason:   11
  newton =   1 [     200] linear =   111 [     22950] cuts =  0 [   0]
  --> max chng: dpmx=   1.5770E-06 dtmpmx=   5.3131E-08

== TH FLOW =====================================================================
 Step    194 Time=  9.10000E+00 Dt=  5.00000E-02 [y] snes_conv_reason:   11
  newton =   1 [     201] linear =   109 [     23059] cuts =  0 [   0]
  --> max chng: dpmx=   1.5179E-06 dtmpmx=   5.2572E-08

== TH FLOW =====================================================================
 Step    195 Time=  9.15000E+00 Dt=  5.00000E-02 [y] snes_conv_reason:   11
  newton =   1 [     202] linear =   112 [     23171] cuts =  0 [   0]
  --> max chng: dpmx=   1.4536E-06 dtmpmx=   5.2009E-08

== TH FLOW =====================================================================
 Step    196 Time=  9.20000E+00 Dt=  5.00000E-02 [y] snes_conv_reason:   11
  newton =   1 [     203] linear =   109 [     23280] cuts =  0 [   0]
  --> max chng: dpmx=   1.3864E-06 dtmpmx=   5.1473E-08

== TH FLOW =====================================================================
 Step    197 Time=  9.25000E+00 Dt=  5.00000E-02 [y] snes_conv_reason:   11
  newton =   1 [     204] linear =   107 [     23387] cuts =  0 [   0]
  --> max chng: dpmx=   1.3165E-06 dtmpmx=   5.0951E-08

== TH FLOW =====================================================================
 Step    198 Time=  9.30000E+00 Dt=  5.00000E-02 [y] snes_conv_reason:   11
  newton =   1 [     205] linear =   111 [     23498] cuts =  0 [   0]
  --> max chng: dpmx=   1.2460E-06 dtmpmx=   5.0332E-08

== TH FLOW =====================================================================
 Step    199 Time=  9.35000E+00 Dt=  5.00000E-02 [y] snes_conv_reason:   11
  newton =   1 [     206] linear =   114 [     23612] cuts =  0 [   0]
  --> max chng: dpmx=   1.1756E-06 dtmpmx=   4.9421E-08

== TH FLOW =====================================================================
 Step    200 Time=  9.40000E+00 Dt=  5.00000E-02 [y] snes_conv_reason:   11
  newton =   1 [     207] linear =   115 [     23727] cuts =  0 [   0]
  --> max chng: dpmx=   1.1056E-06 dtmpmx=   4.8053E-08

== TH FLOW =====================================================================
 Step    201 Time=  9.45000E+00 Dt=  5.00000E-02 [y] snes_conv_reason:   11
  newton =   1 [     208] linear =   112 [     23839] cuts =  0 [   0]
  --> max chng: dpmx=   1.0366E-06 dtmpmx=   4.6528E-08

== TH FLOW =====================================================================
 Step    202 Time=  9.50000E+00 Dt=  5.00000E-02 [y] snes_conv_reason:   11
  newton =   1 [     209] linear =   114 [     23953] cuts =  0 [   0]
  --> max chng: dpmx=   9.6974E-07 dtmpmx=   4.4820E-08

== TH FLOW =====================================================================
 Step    203 Time=  9.55000E+00 Dt=  5.00000E-02 [y] snes_conv_reason:   11
  newton =   1 [     210] linear =   113 [     24066] cuts =  0 [   0]
  --> max chng: dpmx=   9.0466E-07 dtmpmx=   4.3005E-08

== TH FLOW =====================================================================
 Step    204 Time=  9.60000E+00 Dt=  5.00000E-02 [y] snes_conv_reason:   11
  newton =   1 [     211] linear =   117 [     24183] cuts =  0 [   0]
  --> max chng: dpmx=   8.4192E-07 dtmpmx=   4.1003E-08

== TH FLOW =====================================================================
 Step    205 Time=  9.65000E+00 Dt=  5.00000E-02 [y] snes_conv_reason:   11
  newton =   1 [     212] linear =   116 [     24299] cuts =  0 [   0]
  --> max chng: dpmx=   7.8173E-07 dtmpmx=   3.8936E-08

== TH FLOW =====================================================================
 Step    206 Time=  9.70000E+00 Dt=  5.00000E-02 [y] snes_conv_reason:   11
  newton =   1 [     213] linear =   116 [     24415] cuts =  0 [   0]
  --> max chng: dpmx=   7.2375E-07 dtmpmx=   3.6969E-08

== TH FLOW =====================================================================
 Step    207 Time=  9.75000E+00 Dt=  5.00000E-02 [y] snes_conv_reason:   11
  newton =   1 [     214] linear =   116 [     24531] cuts =  0 [   0]
  --> max chng: dpmx=   6.6869E-07 dtmpmx=   3.4860E-08

== TH FLOW =====================================================================
 Step    208 Time=  9.80000E+00 Dt=  5.00000E-02 [y] snes_conv_reason:   11
  newton =   1 [     215] linear =   112 [     24643] cuts =  0 [   0]
  --> max chng: dpmx=   6.1642E-07 dtmpmx=   3.2770E-08

== TH FLOW =====================================================================
 Step    209 Time=  9.85000E+00 Dt=  5.00000E-02 [y] snes_conv_reason:   11
  newton =   1 [     216] linear =   114 [     24757] cuts =  0 [   0]
  --> max chng: dpmx=   5.6683E-07 dtmpmx=   3.0772E-08

== TH FLOW =====================================================================
 Step    210 Time=  9.90000E+00 Dt=  5.00000E-02 [y] snes_conv_reason:   11
  newton =   1 [     217] linear =   115 [     24872] cuts =  0 [   0]
  --> max chng: dpmx=   5.2026E-07 dtmpmx=   2.8809E-08

== TH FLOW =====================================================================
 Step    211 Time=  9.95000E+00 Dt=  5.00000E-02 [y] snes_conv_reason:   11
  newton =   1 [     218] linear =   116 [     24988] cuts =  0 [   0]
  --> max chng: dpmx=   4.7626E-07 dtmpmx=   2.6908E-08

== TH FLOW =====================================================================
 Step    212 Time=  1.00000E+01 Dt=  5.00000E-02 [y] snes_conv_reason:   11
  newton =   1 [     219] linear =   116 [     25104] cuts =  0 [   0]
  --> max chng: dpmx=   4.3481E-07 dtmpmx=   2.5013E-08

== TH FLOW =====================================================================
 Step    213 Time=  1.00500E+01 Dt=  5.00000E-02 [y] snes_conv_reason:   11
  newton =   1 [     220] linear =   116 [     25220] cuts =  0 [   0]
  --> max chng: dpmx=   3.9616E-07 dtmpmx=   2.3247E-08

== TH FLOW =====================================================================
 Step    214 Time=  1.01000E+01 Dt=  5.00000E-02 [y] snes_conv_reason:   11
  newton =   1 [     221] linear =   116 [     25336] cuts =  0 [   0]
  --> max chng: dpmx=   3.5996E-07 dtmpmx=   2.1543E-08

== TH FLOW =====================================================================
 Step    215 Time=  1.01500E+01 Dt=  5.00000E-02 [y] snes_conv_reason:   11
  newton =   1 [     222] linear =   116 [     25452] cuts =  0 [   0]
  --> max chng: dpmx=   3.2654E-07 dtmpmx=   1.9883E-08

== TH FLOW =====================================================================
 Step    216 Time=  1.02000E+01 Dt=  5.00000E-02 [y] snes_conv_reason:   11
  newton =   1 [     223] linear =   114 [     25566] cuts =  0 [   0]
  --> max chng: dpmx=   2.9523E-07 dtmpmx=   1.8341E-08

== TH FLOW =====================================================================
 Step    217 Time=  1.02500E+01 Dt=  5.00000E-02 [y] snes_conv_reason:   11
  newton =   1 [     224] linear =   117 [     25683] cuts =  0 [   0]
  --> max chng: dpmx=   2.6636E-07 dtmpmx=   1.6853E-08

== TH FLOW =====================================================================
 Step    218 Time=  1.03000E+01 Dt=  5.00000E-02 [y] snes_conv_reason:   11
  newton =   1 [     225] linear =   119 [     25802] cuts =  0 [   0]
  --> max chng: dpmx=   2.3970E-07 dtmpmx=   1.5404E-08

== TH FLOW =====================================================================
 Step    219 Time=  1.03500E+01 Dt=  5.00000E-02 [y] snes_conv_reason:   11
  newton =   1 [     226] linear =   114 [     25916] cuts =  0 [   0]
  --> max chng: dpmx=   2.1514E-07 dtmpmx=   1.4165E-08

== TH FLOW =====================================================================
 Step    220 Time=  1.04000E+01 Dt=  5.00000E-02 [y] snes_conv_reason:   11
  newton =   1 [     227] linear =   119 [     26035] cuts =  0 [   0]
  --> max chng: dpmx=   1.9267E-07 dtmpmx=   1.2882E-08

== TH FLOW =====================================================================
 Step    221 Time=  1.04500E+01 Dt=  5.00000E-02 [y] snes_conv_reason:   11
  newton =   1 [     228] linear =   119 [     26154] cuts =  0 [   0]
  --> max chng: dpmx=   1.7195E-07 dtmpmx=   1.1717E-08

== TH FLOW =====================================================================
 Step    222 Time=  1.05000E+01 Dt=  5.00000E-02 [y] snes_conv_reason:   11
  newton =   1 [     229] linear =   123 [     26277] cuts =  0 [   0]
  --> max chng: dpmx=   1.5309E-07 dtmpmx=   1.0620E-08

== TH FLOW =====================================================================
 Step    223 Time=  1.05500E+01 Dt=  5.00000E-02 [y] snes_conv_reason:   11
  newton =   1 [     230] linear =   119 [     26396] cuts =  0 [   0]
  --> max chng: dpmx=   1.3597E-07 dtmpmx=   9.6525E-09

== TH FLOW =====================================================================
 Step    224 Time=  1.06000E+01 Dt=  5.00000E-02 [y] snes_conv_reason:   11
  newton =   1 [     231] linear =   119 [     26515] cuts =  0 [   0]
  --> max chng: dpmx=   1.2026E-07 dtmpmx=   8.6477E-09

== TH FLOW =====================================================================
 Step    225 Time=  1.06500E+01 Dt=  5.00000E-02 [y] snes_conv_reason:   11
  newton =   1 [     232] linear =   119 [     26634] cuts =  0 [   0]
  --> max chng: dpmx=   1.0629E-07 dtmpmx=   7.7903E-09

== TH FLOW =====================================================================
 Step    226 Time=  1.07000E+01 Dt=  5.00000E-02 [y] snes_conv_reason:   11
  newton =   1 [     233] linear =   119 [     26753] cuts =  0 [   0]
  --> max chng: dpmx=   9.3598E-08 dtmpmx=   7.0263E-09

== TH FLOW =====================================================================
 Step    227 Time=  1.07500E+01 Dt=  5.00000E-02 [y] snes_conv_reason:   11
  newton =   1 [     234] linear =   122 [     26875] cuts =  0 [   0]
  --> max chng: dpmx=   8.1956E-08 dtmpmx=   6.3102E-09

== TH FLOW =====================================================================
 Step    228 Time=  1.08000E+01 Dt=  5.00000E-02 [y] snes_conv_reason:   11
  newton =   1 [     235] linear =   119 [     26994] cuts =  0 [   0]
  --> max chng: dpmx=   7.1712E-08 dtmpmx=   5.5495E-09

== TH FLOW =====================================================================
 Step    229 Time=  1.08500E+01 Dt=  5.00000E-02 [y] snes_conv_reason:   11
  newton =   1 [     236] linear =   118 [     27112] cuts =  0 [   0]
  --> max chng: dpmx=   6.2515E-08 dtmpmx=   4.9532E-09

== TH FLOW =====================================================================
 Step    230 Time=  1.09000E+01 Dt=  5.00000E-02 [y] snes_conv_reason:   11
  newton =   1 [     237] linear =   116 [     27228] cuts =  0 [   0]
  --> max chng: dpmx=   5.4366E-08 dtmpmx=   4.4220E-09

== TH FLOW =====================================================================
 Step    231 Time=  1.09500E+01 Dt=  5.00000E-02 [y] snes_conv_reason:   11
  newton =   1 [     238] linear =   119 [     27347] cuts =  0 [   0]
  --> max chng: dpmx=   4.7032E-08 dtmpmx=   3.9002E-09

== TH FLOW =====================================================================
 Step    232 Time=  1.10000E+01 Dt=  5.00000E-02 [y] snes_conv_reason:   11
  newton =   1 [     239] linear =   120 [     27467] cuts =  0 [   0]
  --> max chng: dpmx=   4.0629E-08 dtmpmx=   3.3987E-09

== TH FLOW =====================================================================
 Step    233 Time=  1.10500E+01 Dt=  5.00000E-02 [y] snes_conv_reason:   11
  newton =   1 [     240] linear =   120 [     27587] cuts =  0 [   0]
  --> max chng: dpmx=   3.4808E-08 dtmpmx=   2.9996E-09

== TH FLOW =====================================================================
 Step    234 Time=  1.11000E+01 Dt=  5.00000E-02 [y] snes_conv_reason:   11
  newton =   1 [     241] linear =   121 [     27708] cuts =  0 [   0]
  --> max chng: dpmx=   2.9802E-08 dtmpmx=   2.6510E-09

== TH FLOW =====================================================================
 Step    235 Time=  1.11500E+01 Dt=  5.00000E-02 [y] snes_conv_reason:   11
  newton =   1 [     242] linear =   121 [     27829] cuts =  0 [   0]
  --> max chng: dpmx=   2.5379E-08 dtmpmx=   2.2818E-09

== TH FLOW =====================================================================
 Step    236 Time=  1.12000E+01 Dt=  5.00000E-02 [y] snes_conv_reason:   11
  newton =   1 [     243] linear =   121 [     27950] cuts =  0 [   0]
  --> max chng: dpmx=   2.1537E-08 dtmpmx=   2.0270E-09

== TH FLOW =====================================================================
 Step    237 Time=  1.12500E+01 Dt=  5.00000E-02 [y] snes_conv_reason:   11
  newton =   1 [     244] linear =   122 [     28072] cuts =  0 [   0]
  --> max chng: dpmx=   1.8161E-08 dtmpmx=   1.7134E-09

== TH FLOW =====================================================================
 Step    238 Time=  1.13000E+01 Dt=  5.00000E-02 [y] snes_conv_reason:   11
  newton =   1 [     245] linear =   122 [     28194] cuts =  0 [   0]
  --> max chng: dpmx=   1.5134E-08 dtmpmx=   1.4884E-09

== TH FLOW =====================================================================
 Step    239 Time=  1.13500E+01 Dt=  5.00000E-02 [y] snes_conv_reason:   11
  newton =   1 [     246] linear =   128 [     28322] cuts =  0 [   0]
  --> max chng: dpmx=   1.2689E-08 dtmpmx=   1.2605E-09

== TH FLOW =====================================================================
 Step    240 Time=  1.14000E+01 Dt=  5.00000E-02 [y] snes_conv_reason:   11
  newton =   1 [     247] linear =   125 [     28447] cuts =  0 [   0]
  --> max chng: dpmx=   1.0594E-08 dtmpmx=   1.0908E-09

== TH FLOW =====================================================================
 Step    241 Time=  1.14500E+01 Dt=  5.00000E-02 [y] snes_conv_reason:   11
  newton =   1 [     248] linear =   122 [     28569] cuts =  0 [   0]
  --> max chng: dpmx=   8.7311E-09 dtmpmx=   9.3399E-10

== TH FLOW =====================================================================
 Step    242 Time=  1.15000E+01 Dt=  5.00000E-02 [y] snes_conv_reason:   11
  newton =   1 [     249] linear =   128 [     28697] cuts =  0 [   0]
  --> max chng: dpmx=   7.1013E-09 dtmpmx=   7.7810E-10

== TH FLOW =====================================================================
 Step    243 Time=  1.15500E+01 Dt=  5.00000E-02 [y] snes_conv_reason:   11
  newton =   1 [     250] linear =   132 [     28829] cuts =  0 [   0]
  --> max chng: dpmx=   5.7044E-09 dtmpmx=   6.4022E-10

== TH FLOW =====================================================================
 Step    244 Time=  1.16000E+01 Dt=  5.00000E-02 [y] snes_conv_reason:   11
  newton =   1 [     251] linear =   131 [     28960] cuts =  0 [   0]
  --> max chng: dpmx=   4.5402E-09 dtmpmx=   5.7210E-10

== TH FLOW =====================================================================
 Step    245 Time=  1.16500E+01 Dt=  5.00000E-02 [y] snes_conv_reason:   11
  newton =   1 [     252] linear =   128 [     29088] cuts =  0 [   0]
  --> max chng: dpmx=   3.6089E-09 dtmpmx=   4.4423E-10

== TH FLOW =====================================================================
 Step    246 Time=  1.17000E+01 Dt=  5.00000E-02 [y] snes_conv_reason:   11
  newton =   1 [     253] linear =   128 [     29216] cuts =  0 [   0]
  --> max chng: dpmx=   2.9104E-09 dtmpmx=   3.6580E-10

== TH FLOW =====================================================================
 Step    247 Time=  1.17500E+01 Dt=  5.00000E-02 [y] snes_conv_reason:   11
  newton =   1 [     254] linear =   128 [     29344] cuts =  0 [   0]
  --> max chng: dpmx=   2.2119E-09 dtmpmx=   3.2889E-10

== TH FLOW =====================================================================
 Step    248 Time=  1.18000E+01 Dt=  5.00000E-02 [y] snes_conv_reason:   11
  newton =   1 [     255] linear =   124 [     29468] cuts =  0 [   0]
  --> max chng: dpmx=   1.6298E-09 dtmpmx=   2.2628E-10

== TH FLOW =====================================================================
 Step    249 Time=  1.18500E+01 Dt=  5.00000E-02 [y] snes_conv_reason:   11
  newton =   1 [     256] linear =   123 [     29591] cuts =  0 [   0]
  --> max chng: dpmx=   1.2806E-09 dtmpmx=   2.2266E-10

== TH FLOW =====================================================================
 Step    250 Time=  1.19000E+01 Dt=  5.00000E-02 [y] snes_conv_reason:   11
  newton =   1 [     257] linear =   120 [     29711] cuts =  0 [   0]
  --> max chng: dpmx=   9.3132E-10 dtmpmx=   1.4369E-10

== TH FLOW =====================================================================
 Step    251 Time=  1.19500E+01 Dt=  5.00000E-02 [y] snes_conv_reason:   11
  newton =   1 [     258] linear =   123 [     29834] cuts =  0 [   0]
  --> max chng: dpmx=   1.0477E-09 dtmpmx=   1.2456E-10

== TH FLOW =====================================================================
 Step    252 Time=  1.20000E+01 Dt=  5.00000E-02 [y] snes_conv_reason:   11
  newton =   1 [     259] linear =   118 [     29952] cuts =  0 [   0]
  --> max chng: dpmx=   1.2806E-09 dtmpmx=   1.0189E-10

== TH FLOW =====================================================================
 Step    253 Time=  1.20500E+01 Dt=  5.00000E-02 [y] snes_conv_reason:   11
  newton =   1 [     260] linear =   126 [     30078] cuts =  0 [   0]
  --> max chng: dpmx=   1.2806E-09 dtmpmx=   1.0260E-10

== TH FLOW =====================================================================
 Step    254 Time=  1.21000E+01 Dt=  5.00000E-02 [y] snes_conv_reason:   11
  newton =   1 [     261] linear =   116 [     30194] cuts =  0 [   0]
  --> max chng: dpmx=   1.3970E-09 dtmpmx=   9.6499E-11

== TH FLOW =====================================================================
 Step    255 Time=  1.21500E+01 Dt=  5.00000E-02 [y] snes_conv_reason:   11
  newton =   1 [     262] linear =   103 [     30297] cuts =  0 [   0]
  --> max chng: dpmx=   1.3970E-09 dtmpmx=   9.3969E-11

== TH FLOW =====================================================================
 Step    256 Time=  1.22000E+01 Dt=  5.00000E-02 [y] snes_conv_reason:   11
  newton =   1 [     263] linear =   113 [     30410] cuts =  0 [   0]
  --> max chng: dpmx=   1.3970E-09 dtmpmx=   8.9415E-11

== TH FLOW =====================================================================
 Step    257 Time=  1.22500E+01 Dt=  5.00000E-02 [y] snes_conv_reason:   11
  newton =   1 [     264] linear =   105 [     30515] cuts =  0 [   0]
  --> max chng: dpmx=   1.5134E-09 dtmpmx=   9.8915E-11

[...]
 Step    493 Time=  2.40500E+01 Dt=  5.00000E-02 [y] snes_conv_reason:   11
  newton =   1 [     500] linear =   126 [     53514] cuts =  0 [   0]
  --> max chng: dpmx=   2.3283E-10 dtmpmx=   8.6880E-11

== TH FLOW =====================================================================
 Step    494 Time=  2.41000E+01 Dt=  5.00000E-02 [y] snes_conv_reason:   11
  newton =   1 [     501] linear =   119 [     53633] cuts =  0 [   0]
  --> max chng: dpmx=   2.3283E-10 dtmpmx=   9.2125E-11

== TH FLOW =====================================================================
 Step    495 Time=  2.41500E+01 Dt=  5.00000E-02 [y] snes_conv_reason:   11
  newton =   1 [     502] linear =   111 [     53744] cuts =  0 [   0]
  --> max chng: dpmx=   2.3283E-10 dtmpmx=   8.0378E-11

== TH FLOW =====================================================================
 Step    496 Time=  2.42000E+01 Dt=  5.00000E-02 [y] snes_conv_reason:   11
  newton =   1 [     503] linear =    95 [     53839] cuts =  0 [   0]
  --> max chng: dpmx=   2.3283E-10 dtmpmx=   7.9659E-11

== TH FLOW =====================================================================
 Step    497 Time=  2.42500E+01 Dt=  5.00000E-02 [y] snes_conv_reason:   11
  newton =   1 [     504] linear =   113 [     53952] cuts =  0 [   0]
  --> max chng: dpmx=   2.3283E-10 dtmpmx=   9.3467E-11

== TH FLOW =====================================================================
 Step    498 Time=  2.43000E+01 Dt=  5.00000E-02 [y] snes_conv_reason:   11
  newton =   1 [     505] linear =   114 [     54066] cuts =  0 [   0]
  --> max chng: dpmx=   2.3283E-10 dtmpmx=   9.5040E-11

== TH FLOW =====================================================================
 Step    499 Time=  2.43500E+01 Dt=  5.00000E-02 [y] snes_conv_reason:   11
  newton =   1 [     506] linear =   121 [     54187] cuts =  0 [   0]
  --> max chng: dpmx=   2.3283E-10 dtmpmx=   7.5056E-11

== TH FLOW =====================================================================
 Step    500 Time=  2.44000E+01 Dt=  5.00000E-02 [y] snes_conv_reason:   11
  newton =   1 [     507] linear =   101 [     54288] cuts =  0 [   0]
  --> max chng: dpmx=   2.3283E-10 dtmpmx=   8.1110E-11

== TH FLOW =====================================================================
 Step    501 Time=  2.44500E+01 Dt=  5.00000E-02 [y] snes_conv_reason:   11
  newton =   1 [     508] linear =    90 [     54378] cuts =  0 [   0]
  --> max chng: dpmx=   2.3283E-10 dtmpmx=   8.6814E-11

== TH FLOW =====================================================================
 Step    502 Time=  2.45000E+01 Dt=  5.00000E-02 [y] snes_conv_reason:   11
  newton =   1 [     509] linear =   116 [     54494] cuts =  0 [   0]
  --> max chng: dpmx=   2.3283E-10 dtmpmx=   8.3411E-11

== TH FLOW =====================================================================
 Step    503 Time=  2.45500E+01 Dt=  5.00000E-02 [y] snes_conv_reason:   11
  newton =   1 [     510] linear =    62 [     54556] cuts =  0 [   0]
  --> max chng: dpmx=   2.3283E-10 dtmpmx=   8.5654E-11

== TH FLOW =====================================================================
 Step    504 Time=  2.46000E+01 Dt=  5.00000E-02 [y] snes_conv_reason:   11
  newton =   1 [     511] linear =   101 [     54657] cuts =  0 [   0]
  --> max chng: dpmx=   2.3283E-10 dtmpmx=   7.7788E-11

== TH FLOW =====================================================================
 Step    505 Time=  2.46500E+01 Dt=  5.00000E-02 [y] snes_conv_reason:   11
  newton =   1 [     512] linear =    84 [     54741] cuts =  0 [   0]
  --> max chng: dpmx=   2.3283E-10 dtmpmx=   8.5757E-11

== TH FLOW =====================================================================
 Step    506 Time=  2.47000E+01 Dt=  5.00000E-02 [y] snes_conv_reason:   11
  newton =   1 [     513] linear =    99 [     54840] cuts =  0 [   0]
  --> max chng: dpmx=   2.3283E-10 dtmpmx=   9.3893E-11

== TH FLOW =====================================================================
 Step    507 Time=  2.47500E+01 Dt=  5.00000E-02 [y] snes_conv_reason:   11
  newton =   1 [     514] linear =   115 [     54955] cuts =  0 [   0]
  --> max chng: dpmx=   2.3283E-10 dtmpmx=   8.2990E-11

== TH FLOW =====================================================================
 Step    508 Time=  2.48000E+01 Dt=  5.00000E-02 [y] snes_conv_reason:   11
  newton =   1 [     515] linear =    76 [     55031] cuts =  0 [   0]
  --> max chng: dpmx=   2.3283E-10 dtmpmx=   7.9464E-11

== TH FLOW =====================================================================
 Step    509 Time=  2.48500E+01 Dt=  5.00000E-02 [y] snes_conv_reason:   11
  newton =   1 [     516] linear =    82 [     55113] cuts =  0 [   0]
  --> max chng: dpmx=   2.3283E-10 dtmpmx=   8.6846E-11

== TH FLOW =====================================================================
 Step    510 Time=  2.49000E+01 Dt=  5.00000E-02 [y] snes_conv_reason:   11
  newton =   1 [     517] linear =   115 [     55228] cuts =  0 [   0]
  --> max chng: dpmx=   2.3283E-10 dtmpmx=   9.4646E-11

== TH FLOW =====================================================================
 Step    511 Time=  2.49500E+01 Dt=  5.00000E-02 [y] snes_conv_reason:   11
  newton =   1 [     518] linear =   102 [     55330] cuts =  0 [   0]
  --> max chng: dpmx=   2.3283E-10 dtmpmx=   9.5731E-11

== TH FLOW =====================================================================
 Step    512 Time=  2.50000E+01 Dt=  5.00000E-02 [y] snes_conv_reason:   11
  newton =   1 [     519] linear =    97 [     55427] cuts =  0 [   0]
  --> max chng: dpmx=   2.3283E-10 dtmpmx=   8.8386E-11

== TH FLOW =====================================================================
 Step    513 Time=  2.50500E+01 Dt=  5.00000E-02 [y] snes_conv_reason:   11
  newton =   1 [     520] linear =   101 [     55528] cuts =  0 [   0]
  --> max chng: dpmx=   2.3283E-10 dtmpmx=   1.0074E-10

== TH FLOW =====================================================================
 Step    514 Time=  2.51000E+01 Dt=  5.00000E-02 [y] snes_conv_reason:   11
  newton =   1 [     521] linear =    97 [     55625] cuts =  0 [   0]
  --> max chng: dpmx=   2.3283E-10 dtmpmx=   9.1573E-11

== TH FLOW =====================================================================
 Step    515 Time=  2.51500E+01 Dt=  5.00000E-02 [y] snes_conv_reason:   11
  newton =   1 [     522] linear =   112 [     55737] cuts =  0 [   0]
  --> max chng: dpmx=   2.3283E-10 dtmpmx=   8.2519E-11

== TH FLOW =====================================================================
 Step    516 Time=  2.52000E+01 Dt=  5.00000E-02 [y] snes_conv_reason:   11
  newton =   1 [     523] linear =    95 [     55832] cuts =  0 [   0]
  --> max chng: dpmx=   2.3283E-10 dtmpmx=   9.3342E-11

== TH FLOW =====================================================================
 Step    517 Time=  2.52500E+01 Dt=  5.00000E-02 [y] snes_conv_reason:   11
  newton =   1 [     524] linear =    99 [     55931] cuts =  0 [   0]
  --> max chng: dpmx=   2.3283E-10 dtmpmx=   8.7853E-11

== TH FLOW =====================================================================
 Step    518 Time=  2.53000E+01 Dt=  5.00000E-02 [y] snes_conv_reason:   11
  newton =   1 [     525] linear =   127 [     56058] cuts =  0 [   0]
  --> max chng: dpmx=   2.3283E-10 dtmpmx=   8.4697E-11

== TH FLOW =====================================================================
 Step    519 Time=  2.53500E+01 Dt=  5.00000E-02 [y] snes_conv_reason:   11
  newton =   1 [     526] linear =    69 [     56127] cuts =  0 [   0]
  --> max chng: dpmx=   2.3283E-10 dtmpmx=   8.7358E-11

== TH FLOW =====================================================================
 Step    520 Time=  2.54000E+01 Dt=  5.00000E-02 [y] snes_conv_reason:   11
  newton =   1 [     527] linear =   100 [     56227] cuts =  0 [   0]
  --> max chng: dpmx=   2.3283E-10 dtmpmx=   8.2201E-11

== TH FLOW =====================================================================
 Step    521 Time=  2.54500E+01 Dt=  5.00000E-02 [y] snes_conv_reason:   11
  newton =   1 [     528] linear =    90 [     56317] cuts =  0 [   0]
  --> max chng: dpmx=   2.3283E-10 dtmpmx=   8.5292E-11

== TH FLOW =====================================================================
 Step    522 Time=  2.55000E+01 Dt=  5.00000E-02 [y] snes_conv_reason:   11
  newton =   1 [     529] linear =    90 [     56407] cuts =  0 [   0]
  --> max chng: dpmx=   2.3283E-10 dtmpmx=   8.9214E-11

== TH FLOW =====================================================================
 Step    523 Time=  2.55500E+01 Dt=  5.00000E-02 [y] snes_conv_reason:   11
  newton =   1 [     530] linear =    83 [     56490] cuts =  0 [   0]
  --> max chng: dpmx=   2.3283E-10 dtmpmx=   9.1983E-11

== TH FLOW =====================================================================
 Step    524 Time=  2.56000E+01 Dt=  5.00000E-02 [y] snes_conv_reason:   11
  newton =   1 [     531] linear =   117 [     56607] cuts =  0 [   0]
  --> max chng: dpmx=   2.3283E-10 dtmpmx=   8.7391E-11

== TH FLOW =====================================================================
 Step    525 Time=  2.56500E+01 Dt=  5.00000E-02 [y] snes_conv_reason:   11
  newton =   1 [     532] linear =    92 [     56699] cuts =  0 [   0]
  --> max chng: dpmx=   2.3283E-10 dtmpmx=   7.8812E-11

== TH FLOW =====================================================================
 Step    526 Time=  2.57000E+01 Dt=  5.00000E-02 [y] snes_conv_reason:   11
  newton =   1 [     533] linear =   123 [     56822] cuts =  0 [   0]
  --> max chng: dpmx=   2.3283E-10 dtmpmx=   7.8630E-11

== TH FLOW =====================================================================
 Step    527 Time=  2.57500E+01 Dt=  5.00000E-02 [y] snes_conv_reason:   11
  newton =   1 [     534] linear =    70 [     56892] cuts =  0 [   0]
  --> max chng: dpmx=   2.3283E-10 dtmpmx=   8.3025E-11

== TH FLOW =====================================================================
 Step    528 Time=  2.58000E+01 Dt=  5.00000E-02 [y] snes_conv_reason:   11
  newton =   1 [     535] linear =    89 [     56981] cuts =  0 [   0]
  --> max chng: dpmx=   2.3283E-10 dtmpmx=   8.9704E-11

== TH FLOW =====================================================================
 Step    529 Time=  2.58500E+01 Dt=  5.00000E-02 [y] snes_conv_reason:   11
  newton =   1 [     536] linear =    63 [     57044] cuts =  0 [   0]
  --> max chng: dpmx=   2.3283E-10 dtmpmx=   9.0411E-11

== TH FLOW =====================================================================
 Step    530 Time=  2.59000E+01 Dt=  5.00000E-02 [y] snes_conv_reason:   11
  newton =   1 [     537] linear =    85 [     57129] cuts =  0 [   0]
  --> max chng: dpmx=   2.3283E-10 dtmpmx=   7.9108E-11

== TH FLOW =====================================================================
 Step    531 Time=  2.59500E+01 Dt=  5.00000E-02 [y] snes_conv_reason:   11
  newton =   1 [     538] linear =   111 [     57240] cuts =  0 [   0]
  --> max chng: dpmx=   2.3283E-10 dtmpmx=   8.2856E-11

== TH FLOW =====================================================================
 Step    532 Time=  2.60000E+01 Dt=  5.00000E-02 [y] snes_conv_reason:   11
  newton =   1 [     539] linear =    88 [     57328] cuts =  0 [   0]
  --> max chng: dpmx=   2.3283E-10 dtmpmx=   9.8501E-11

== TH FLOW =====================================================================
 Step    533 Time=  2.60500E+01 Dt=  5.00000E-02 [y] snes_conv_reason:   11
  newton =   1 [     540] linear =    76 [     57404] cuts =  0 [   0]
  --> max chng: dpmx=   2.3283E-10 dtmpmx=   8.7590E-11

== TH FLOW =====================================================================
 Step    534 Time=  2.61000E+01 Dt=  5.00000E-02 [y] snes_conv_reason:   11
  newton =   1 [     541] linear =   102 [     57506] cuts =  0 [   0]
  --> max chng: dpmx=   2.3283E-10 dtmpmx=   9.3459E-11

== TH FLOW =====================================================================
 Step    535 Time=  2.61500E+01 Dt=  5.00000E-02 [y] snes_conv_reason:   11
  newton =   1 [     542] linear =    92 [     57598] cuts =  0 [   0]
  --> max chng: dpmx=   2.3283E-10 dtmpmx=   1.0001E-10

== TH FLOW =====================================================================
 Step    536 Time=  2.62000E+01 Dt=  5.00000E-02 [y] snes_conv_reason:   11
  newton =   1 [     543] linear =   112 [     57710] cuts =  0 [   0]
  --> max chng: dpmx=   2.3283E-10 dtmpmx=   9.4438E-11

== TH FLOW =====================================================================
 Step    537 Time=  2.62500E+01 Dt=  5.00000E-02 [y] snes_conv_reason:   11
  newton =   1 [     544] linear =   101 [     57811] cuts =  0 [   0]
  --> max chng: dpmx=   2.3283E-10 dtmpmx=   8.9155E-11

== TH FLOW =====================================================================
 Step    538 Time=  2.63000E+01 Dt=  5.00000E-02 [y] snes_conv_reason:   11
  newton =   1 [     545] linear =    98 [     57909] cuts =  0 [   0]
  --> max chng: dpmx=   2.3283E-10 dtmpmx=   9.1248E-11

== TH FLOW =====================================================================
 Step    539 Time=  2.63500E+01 Dt=  5.00000E-02 [y] snes_conv_reason:   11
  newton =   1 [     546] linear =   111 [     58020] cuts =  0 [   0]
  --> max chng: dpmx=   2.3283E-10 dtmpmx=   8.4963E-11

== TH FLOW =====================================================================
 Step    540 Time=  2.64000E+01 Dt=  5.00000E-02 [y] snes_conv_reason:   11
  newton =   1 [     547] linear =    93 [     58113] cuts =  0 [   0]
  --> max chng: dpmx=   2.3283E-10 dtmpmx=   8.8525E-11

== TH FLOW =====================================================================
 Step    541 Time=  2.64500E+01 Dt=  5.00000E-02 [y] snes_conv_reason:   11
  newton =   1 [     548] linear =   108 [     58221] cuts =  0 [   0]
  --> max chng: dpmx=   2.3283E-10 dtmpmx=   8.9459E-11

== TH FLOW =====================================================================
 Step    542 Time=  2.65000E+01 Dt=  5.00000E-02 [y] snes_conv_reason:   11
  newton =   1 [     549] linear =    56 [     58277] cuts =  0 [   0]
  --> max chng: dpmx=   2.3283E-10 dtmpmx=   9.1010E-11

== TH FLOW =====================================================================
 Step    543 Time=  2.65500E+01 Dt=  5.00000E-02 [y] snes_conv_reason:   11
  newton =   1 [     550] linear =   100 [     58377] cuts =  0 [   0]
  --> max chng: dpmx=   2.3283E-10 dtmpmx=   8.2553E-11

== TH FLOW =====================================================================
 Step    544 Time=  2.66000E+01 Dt=  5.00000E-02 [y] snes_conv_reason:   11
  newton =   1 [     551] linear =   108 [     58485] cuts =  0 [   0]
  --> max chng: dpmx=   2.3283E-10 dtmpmx=   8.1188E-11

== TH FLOW =====================================================================
 Step    545 Time=  2.66500E+01 Dt=  5.00000E-02 [y] snes_conv_reason:   11
  newton =   1 [     552] linear =   109 [     58594] cuts =  0 [   0]
  --> max chng: dpmx=   2.3283E-10 dtmpmx=   8.5818E-11

== TH FLOW =====================================================================
 Step    546 Time=  2.67000E+01 Dt=  5.00000E-02 [y] snes_conv_reason:   11
  newton =   1 [     553] linear =    89 [     58683] cuts =  0 [   0]
  --> max chng: dpmx=   2.3283E-10 dtmpmx=   8.9807E-11

== TH FLOW =====================================================================
 Step    547 Time=  2.67500E+01 Dt=  5.00000E-02 [y] snes_conv_reason:   11
  newton =   1 [     554] linear =   106 [     58789] cuts =  0 [   0]
  --> max chng: dpmx=   2.3283E-10 dtmpmx=   8.1421E-11

== TH FLOW =====================================================================
 Step    548 Time=  2.68000E+01 Dt=  5.00000E-02 [y] snes_conv_reason:   11
  newton =   1 [     555] linear =   105 [     58894] cuts =  0 [   0]
  --> max chng: dpmx=   2.3283E-10 dtmpmx=   8.7942E-11

== TH FLOW =====================================================================
 Step    549 Time=  2.68500E+01 Dt=  5.00000E-02 [y] snes_conv_reason:   11
  newton =   1 [     556] linear =   110 [     59004] cuts =  0 [   0]
  --> max chng: dpmx=   2.3283E-10 dtmpmx=   8.6532E-11

== TH FLOW =====================================================================
 Step    550 Time=  2.69000E+01 Dt=  5.00000E-02 [y] snes_conv_reason:   11
  newton =   1 [     557] linear =    91 [     59095] cuts =  0 [   0]
  --> max chng: dpmx=   2.3283E-10 dtmpmx=   9.0074E-11

== TH FLOW =====================================================================
 Step    551 Time=  2.69500E+01 Dt=  5.00000E-02 [y] snes_conv_reason:   11
  newton =   1 [     558] linear =    81 [     59176] cuts =  0 [   0]
  --> max chng: dpmx=   2.3283E-10 dtmpmx=   7.9416E-11

== TH FLOW =====================================================================
 Step    552 Time=  2.70000E+01 Dt=  5.00000E-02 [y] snes_conv_reason:   11
  newton =   1 [     559] linear =   109 [     59285] cuts =  0 [   0]
  --> max chng: dpmx=   2.3283E-10 dtmpmx=   8.3217E-11

== TH FLOW =====================================================================
 Step    553 Time=  2.70500E+01 Dt=  5.00000E-02 [y] snes_conv_reason:   11
  newton =   1 [     560] linear =   115 [     59400] cuts =  0 [   0]
  --> max chng: dpmx=   2.3283E-10 dtmpmx=   8.5924E-11

== TH FLOW =====================================================================
 Step    554 Time=  2.71000E+01 Dt=  5.00000E-02 [y] snes_conv_reason:   11
  newton =   1 [     561] linear =    94 [     59494] cuts =  0 [   0]
  --> max chng: dpmx=   2.3283E-10 dtmpmx=   9.1672E-11

== TH FLOW =====================================================================
 Step    555 Time=  2.71500E+01 Dt=  5.00000E-02 [y] snes_conv_reason:   11
  newton =   1 [     562] linear =   112 [     59606] cuts =  0 [   0]
  --> max chng: dpmx=   2.3283E-10 dtmpmx=   9.0182E-11

== TH FLOW =====================================================================
 Step    556 Time=  2.72000E+01 Dt=  5.00000E-02 [y] snes_conv_reason:   11
  newton =   1 [     563] linear =   113 [     59719] cuts =  0 [   0]
  --> max chng: dpmx=   2.3283E-10 dtmpmx=   1.0490E-10

== TH FLOW =====================================================================
 Step    557 Time=  2.72500E+01 Dt=  5.00000E-02 [y] snes_conv_reason:   11
  newton =   1 [     564] linear =    97 [     59816] cuts =  0 [   0]
  --> max chng: dpmx=   2.3283E-10 dtmpmx=   1.0187E-10

== TH FLOW =====================================================================
 Step    558 Time=  2.73000E+01 Dt=  5.00000E-02 [y] snes_conv_reason:   11
  newton =   1 [     565] linear =   101 [     59917] cuts =  0 [   0]
  --> max chng: dpmx=   2.3283E-10 dtmpmx=   1.0319E-10

== TH FLOW =====================================================================
 Step    559 Time=  2.73500E+01 Dt=  5.00000E-02 [y] snes_conv_reason:   11
  newton =   1 [     566] linear =    91 [     60008] cuts =  0 [   0]
  --> max chng: dpmx=   2.3283E-10 dtmpmx=   9.1683E-11

== TH FLOW =====================================================================
 Step    560 Time=  2.74000E+01 Dt=  5.00000E-02 [y] snes_conv_reason:   11
  newton =   1 [     567] linear =    91 [     60099] cuts =  0 [   0]
  --> max chng: dpmx=   2.3283E-10 dtmpmx=   8.9559E-11

== TH FLOW =====================================================================
 Step    561 Time=  2.74500E+01 Dt=  5.00000E-02 [y] snes_conv_reason:   11
  newton =   1 [     568] linear =    99 [     60198] cuts =  0 [   0]
  --> max chng: dpmx=   2.3283E-10 dtmpmx=   9.0772E-11

== TH FLOW =====================================================================
 Step    562 Time=  2.75000E+01 Dt=  5.00000E-02 [y] snes_conv_reason:   11
  newton =   1 [     569] linear =   115 [     60313] cuts =  0 [   0]
  --> max chng: dpmx=   2.3283E-10 dtmpmx=   1.1072E-10

 Wall Clock Time:  1.3092E+02 [sec]   2.1820E+00 [min]   3.6366E-02 [hr]
