
===================
  PFLOTRAN v3.0.1
===================

 Extent of Gridded Domain
  X: 2.5000000000000000 - 97.500000000000000
  Y: 2.5000000000000000 - 1277.5000000000000
  Z: 2.5000000000000000 - 2.5000000000000000


=+=+=+=+=+=+=+=+=+=+=+=+=+=+=+=+=+=+=+=+=+=+=+=+=+=+=+=+=+=+=+=+=+=+=+=+=+=+=+=+

  Initial Condition

--------------------------------------------------------------------------------
          Flow Condition:   initial
                  Region:   all
--------------------------------------------------------------------------------

  Flow Condition: initial
    Synchronize time with update: no
    Time units: yr
    Length units: m
      Datum:
        Dataset: Unnamed Ascii Dataset
          Type: dataset_ascii_type
          Transient: no
          Array Rank:  3

    Sub Condition: pressure
      Type: hydrostatic
      Gradient:
        Dataset: Unnamed Ascii Dataset
          Type: dataset_ascii_type
          Transient: no
          Array Rank:  3
      Data:
        Dataset: Unnamed Ascii Dataset
          Type: dataset_ascii_type
          Transient: no
          Array Rank:  1

    Sub Condition: temperature
      Type: dirichlet
      Gradient:
      Data:
        Dataset: Unnamed Ascii Dataset
          Type: dataset_ascii_type
          Transient: no
          Array Rank:  1

--------------------------------------------------------------------------------

=+=+=+=+=+=+=+=+=+=+=+=+=+=+=+=+=+=+=+=+=+=+=+=+=+=+=+=+=+=+=+=+=+=+=+=+=+=+=+=+

  Boundary Condition

--------------------------------------------------------------------------------
          Flow Condition:   initial
                  Region:   north
--------------------------------------------------------------------------------

  Flow Condition: initial
    Synchronize time with update: no
    Time units: yr
    Length units: m
      Datum:
        Dataset: Unnamed Ascii Dataset
          Type: dataset_ascii_type
          Transient: no
          Array Rank:  3

    Sub Condition: pressure
      Type: hydrostatic
      Gradient:
        Dataset: Unnamed Ascii Dataset
          Type: dataset_ascii_type
          Transient: no
          Array Rank:  3
      Data:
        Dataset: Unnamed Ascii Dataset
          Type: dataset_ascii_type
          Transient: no
          Array Rank:  1

    Sub Condition: temperature
      Type: dirichlet
      Gradient:
      Data:
        Dataset: Unnamed Ascii Dataset
          Type: dataset_ascii_type
          Transient: no
          Array Rank:  1

--------------------------------------------------------------------------------

=+=+=+=+=+=+=+=+=+=+=+=+=+=+=+=+=+=+=+=+=+=+=+=+=+=+=+=+=+=+=+=+=+=+=+=+=+=+=+=+

  Boundary Condition

--------------------------------------------------------------------------------
          Flow Condition:   initial
                  Region:   south
--------------------------------------------------------------------------------

  Flow Condition: initial
    Synchronize time with update: no
    Time units: yr
    Length units: m
      Datum:
        Dataset: Unnamed Ascii Dataset
          Type: dataset_ascii_type
          Transient: no
          Array Rank:  3

    Sub Condition: pressure
      Type: hydrostatic
      Gradient:
        Dataset: Unnamed Ascii Dataset
          Type: dataset_ascii_type
          Transient: no
          Array Rank:  3
      Data:
        Dataset: Unnamed Ascii Dataset
          Type: dataset_ascii_type
          Transient: no
          Array Rank:  1

    Sub Condition: temperature
      Type: dirichlet
      Gradient:
      Data:
        Dataset: Unnamed Ascii Dataset
          Type: dataset_ascii_type
          Transient: no
          Array Rank:  1

--------------------------------------------------------------------------------

=+=+=+=+=+=+=+=+=+=+=+=+=+=+=+=+=+=+=+=+=+=+=+=+=+=+=+=+=+=+=+=+=+=+=+=+=+=+=+=+

  Source Sink

--------------------------------------------------------------------------------
          Flow Condition:   injection
                  Region:   heatpump_inject0
--------------------------------------------------------------------------------

  Flow Condition: injection
    Synchronize time with update: no
    Time units: yr
    Length units: m
      Datum:

    Sub Condition: rate
      Type: scaled volumetric rate
      Gradient:
      Data:
        Dataset: Unnamed Ascii Dataset
          Type: dataset_ascii_type
          Is transient?: yes
          Number of times:      3
          Is cyclic?: no
          Buffer:
            Rank:  2
            Dims:    1   3
            Buffer Slice Size:   0
          Array Rank:  1

    Sub Condition: temperature
      Type: dirichlet
      Gradient:
      Data:
        Dataset: Unnamed Ascii Dataset
          Type: dataset_ascii_type
          Transient: no
          Array Rank:  1

--------------------------------------------------------------------------------

 Requested processors =    32

FLOW Time Stepper
                 acceleration: on
       acceleration threshold: 5
       number of ramp entries: 5
                ramp entry #1: 2.0000
                ramp entry #2: 2.0000
                ramp entry #3: 2.0000
                ramp entry #4: 2.0000
                ramp entry #5: 2.0000
                ramp entry #6: 1.8000
                ramp entry #7: 1.6000
                ramp entry #8: 1.4000
                ramp entry #9: 1.2000
               ramp entry #10: 1.0000
               ramp entry #11: 1.0000
               ramp entry #12: 1.0000
               ramp entry #13: 1.0000
      maximum number of steps: 999999
constant time steps threshold: 5
       maximum number of cuts: 16
             reduction factor: 5.000000E-01
        maximum growth factor: 2.000000E+00

FLOW Newton Solver
                         atol: 1.000000E-50
                         rtol: 1.000000E-03
                         stol: 1.000000E-08
                         dtol: 1.000000E+04
                      maxnorm: 1.000000E+20
                    inftolres: -9.990000E+02
                    inftolupd: 1.000000E+00
                 inftolrelupd: -9.990000E+02
                 inftolsclres: -9.990000E+02
                     max iter: 50
                     min iter: 1
                         maxf: 10000
                  matrix type: baij
         precond. matrix type: baij
               inexact newton: off
            print convergence: on
   print detailed convergence: off
          check infinity norm: on

FLOW Linear Solver
                       solver: bcgs
               preconditioner: bjacobi
                         atol: 1.000000E-50
                         rtol: 1.000000E-05
                         dtol: 1.000000E+04
            maximum iteration: 10000

== TH FLOW =====================================================================
 Step      1 Time=  1.00000E-05 Dt=  1.00000E-05 [y] snes_conv_reason:   11
  newton =   1 [       1] linear =   119 [       119] cuts =  0 [   0]
  --> max chng: dpmx=   4.5103E-02 dtmpmx=   2.1704E-08

== TH FLOW =====================================================================
 Step      2 Time=  3.00000E-05 Dt=  2.00000E-05 [y] snes_conv_reason:   11
  newton =   1 [       2] linear =   122 [       241] cuts =  0 [   0]
  --> max chng: dpmx=   2.5289E-03 dtmpmx=   4.3299E-08

== TH FLOW =====================================================================
 Step      3 Time=  7.00000E-05 Dt=  4.00000E-05 [y] snes_conv_reason:   11
  newton =   1 [       3] linear =   123 [       364] cuts =  0 [   0]
  --> max chng: dpmx=   6.9973E-05 dtmpmx=   8.6592E-08

== TH FLOW =====================================================================
 Step      4 Time=  1.50000E-04 Dt=  8.00000E-05 [y] snes_conv_reason:   11
  newton =   1 [       4] linear =   134 [       498] cuts =  0 [   0]
  --> max chng: dpmx=   7.6275E-07 dtmpmx=   1.7318E-07

== TH FLOW =====================================================================
 Step      5 Time=  3.10000E-04 Dt=  1.60000E-04 [y] snes_conv_reason:   11
  newton =   1 [       5] linear =   131 [       629] cuts =  0 [   0]
  --> max chng: dpmx=   8.8930E-07 dtmpmx=   3.4637E-07

== TH FLOW =====================================================================
 Step      6 Time=  6.30000E-04 Dt=  3.20000E-04 [y] snes_conv_reason:   11
  newton =   1 [       6] linear =    96 [       725] cuts =  0 [   0]
  --> max chng: dpmx=   1.8342E-06 dtmpmx=   6.9274E-07

== TH FLOW =====================================================================
 Step      7 Time=  1.27000E-03 Dt=  6.40000E-04 [y] snes_conv_reason:   11
  newton =   1 [       7] linear =   123 [       848] cuts =  0 [   0]
  --> max chng: dpmx=   3.8814E-06 dtmpmx=   1.3855E-06

== TH FLOW =====================================================================
 Step      8 Time=  2.55000E-03 Dt=  1.28000E-03 [y] snes_conv_reason:   11
  newton =   1 [       8] linear =   124 [       972] cuts =  0 [   0]
  --> max chng: dpmx=   8.6424E-06 dtmpmx=   2.7710E-06

== TH FLOW =====================================================================
 Step      9 Time=  5.11000E-03 Dt=  2.56000E-03 [y] snes_conv_reason:   11
  newton =   1 [       9] linear =   133 [      1105] cuts =  0 [   0]
  --> max chng: dpmx=   2.0760E-05 dtmpmx=   5.5419E-06

== TH FLOW =====================================================================
 Step     10 Time=  1.02300E-02 Dt=  5.12000E-03 [y] snes_conv_reason:   11
  newton =   1 [      10] linear =   121 [      1226] cuts =  0 [   0]
  --> max chng: dpmx=   5.5342E-05 dtmpmx=   1.1084E-05

== TH FLOW =====================================================================
 Step     11 Time=  2.04700E-02 Dt=  1.02400E-02 [y] snes_conv_reason:   11
  newton =   1 [      11] linear =   130 [      1356] cuts =  0 [   0]
  --> max chng: dpmx=   1.6491E-04 dtmpmx=   2.2168E-05

== TH FLOW =====================================================================
 Step     12 Time=  4.09500E-02 Dt=  2.04800E-02 [y] snes_conv_reason:   11
  newton =   1 [      12] linear =   131 [      1487] cuts =  0 [   0]
  --> max chng: dpmx=   5.3966E-04 dtmpmx=   4.4335E-05

== TH FLOW =====================================================================
 Step     13 Time=  8.19100E-02 Dt=  4.09600E-02 [y] snes_conv_reason:   11
  newton =   1 [      13] linear =   136 [      1623] cuts =  0 [   0]
  --> max chng: dpmx=   1.8672E-03 dtmpmx=   8.8671E-05

== TH FLOW =====================================================================
 Step     14 Time=  1.00000E-01 Dt=  1.80900E-02 [y] snes_conv_reason:   11
  newton =   1 [      14] linear =   134 [      1757] cuts =  0 [   0]
  --> max chng: dpmx=   9.7935E-04 dtmpmx=   3.9161E-05

== TH FLOW =====================================================================
 Step     15 Time=  1.50000E-01 Dt=  5.00000E-02 [y] snes_conv_reason:   11
  newton =   1 [      15] linear =   134 [      1891] cuts =  0 [   0]
  --> max chng: dpmx=   3.7941E-03 dtmpmx=   1.0824E-04

== TH FLOW =====================================================================
 Step     16 Time=  2.00000E-01 Dt=  5.00000E-02 [y] snes_conv_reason:   11
  newton =   1 [      16] linear =   138 [      2029] cuts =  0 [   0]
  --> max chng: dpmx=   4.8262E-03 dtmpmx=   1.0824E-04

== TH FLOW =====================================================================
 Step     17 Time=  2.50000E-01 Dt=  5.00000E-02 [y] snes_conv_reason:   11
  newton =   2 [      18] linear =   269 [      2298] cuts =  0 [   0]
  --> max chng: dpmx=   6.3290E+01 dtmpmx=   1.5246E+00

== TH FLOW =====================================================================
 Step     18 Time=  3.00000E-01 Dt=  5.00000E-02 [y] snes_conv_reason:   11
  newton =   2 [      20] linear =   269 [      2567] cuts =  0 [   0]
  --> max chng: dpmx=   1.2059E+00 dtmpmx=   5.8172E-01

== TH FLOW =====================================================================
 Step     19 Time=  3.50000E-01 Dt=  5.00000E-02 [y] snes_conv_reason:   11
  newton =   2 [      22] linear =   286 [      2853] cuts =  0 [   0]
  --> max chng: dpmx=   1.1349E+00 dtmpmx=   4.1975E-01

== TH FLOW =====================================================================
 Step     20 Time=  4.00000E-01 Dt=  5.00000E-02 [y] snes_conv_reason:   11
  newton =   2 [      24] linear =   274 [      3127] cuts =  0 [   0]
  --> max chng: dpmx=   1.0795E+00 dtmpmx=   3.4123E-01

== TH FLOW =====================================================================
 Step     21 Time=  4.50000E-01 Dt=  5.00000E-02 [y] snes_conv_reason:   11
  newton =   2 [      26] linear =   269 [      3396] cuts =  0 [   0]
  --> max chng: dpmx=   1.0294E+00 dtmpmx=   2.9242E-01

== TH FLOW =====================================================================
 Step     22 Time=  5.00000E-01 Dt=  5.00000E-02 [y] snes_conv_reason:   11
  newton =   1 [      27] linear =   130 [      3526] cuts =  0 [   0]
  --> max chng: dpmx=   9.8193E-01 dtmpmx=   2.5848E-01

== TH FLOW =====================================================================
 Step     23 Time=  5.50000E-01 Dt=  5.00000E-02 [y] snes_conv_reason:   11
  newton =   1 [      28] linear =   122 [      3648] cuts =  0 [   0]
  --> max chng: dpmx=   9.3723E-01 dtmpmx=   2.3278E-01

== TH FLOW =====================================================================
 Step     24 Time=  6.00000E-01 Dt=  5.00000E-02 [y] snes_conv_reason:   11
  newton =   1 [      29] linear =   129 [      3777] cuts =  0 [   0]
  --> max chng: dpmx=   8.9406E-01 dtmpmx=   2.1241E-01

== TH FLOW =====================================================================
 Step     25 Time=  6.50000E-01 Dt=  5.00000E-02 [y] snes_conv_reason:   11
  newton =   1 [      30] linear =   129 [      3906] cuts =  0 [   0]
  --> max chng: dpmx=   8.5162E-01 dtmpmx=   1.9571E-01

== TH FLOW =====================================================================
 Step     26 Time=  7.00000E-01 Dt=  5.00000E-02 [y] snes_conv_reason:   11
  newton =   1 [      31] linear =   131 [      4037] cuts =  0 [   0]
  --> max chng: dpmx=   8.1027E-01 dtmpmx=   1.8170E-01

== TH FLOW =====================================================================
 Step     27 Time=  7.50000E-01 Dt=  5.00000E-02 [y] snes_conv_reason:   11
  newton =   1 [      32] linear =   128 [      4165] cuts =  0 [   0]
  --> max chng: dpmx=   7.6955E-01 dtmpmx=   1.6972E-01

== TH FLOW =====================================================================
 Step     28 Time=  8.00000E-01 Dt=  5.00000E-02 [y] snes_conv_reason:   11
  newton =   1 [      33] linear =   115 [      4280] cuts =  0 [   0]
  --> max chng: dpmx=   7.2939E-01 dtmpmx=   1.5931E-01

== TH FLOW =====================================================================
 Step     29 Time=  8.50000E-01 Dt=  5.00000E-02 [y] snes_conv_reason:   11
  newton =   1 [      34] linear =   122 [      4402] cuts =  0 [   0]
  --> max chng: dpmx=   6.9034E-01 dtmpmx=   1.5021E-01

== TH FLOW =====================================================================
 Step     30 Time=  9.00000E-01 Dt=  5.00000E-02 [y] snes_conv_reason:   11
  newton =   1 [      35] linear =   125 [      4527] cuts =  0 [   0]
  --> max chng: dpmx=   6.5121E-01 dtmpmx=   1.4214E-01

== TH FLOW =====================================================================
 Step     31 Time=  9.50000E-01 Dt=  5.00000E-02 [y] snes_conv_reason:   11
  newton =   1 [      36] linear =   129 [      4656] cuts =  0 [   0]
  --> max chng: dpmx=   6.1291E-01 dtmpmx=   1.3491E-01

== TH FLOW =====================================================================
 Step     32 Time=  1.00000E+00 Dt=  5.00000E-02 [y] snes_conv_reason:   11
  newton =   1 [      37] linear =   123 [      4779] cuts =  0 [   0]
  --> max chng: dpmx=   5.7473E-01 dtmpmx=   1.2838E-01

== TH FLOW =====================================================================
 Step     33 Time=  1.05000E+00 Dt=  5.00000E-02 [y] snes_conv_reason:   11
  newton =   1 [      38] linear =   129 [      4908] cuts =  0 [   0]
  --> max chng: dpmx=   5.3734E-01 dtmpmx=   1.2245E-01

== TH FLOW =====================================================================
 Step     34 Time=  1.10000E+00 Dt=  5.00000E-02 [y] snes_conv_reason:   11
  newton =   1 [      39] linear =   127 [      5035] cuts =  0 [   0]
  --> max chng: dpmx=   4.9986E-01 dtmpmx=   1.1703E-01

== TH FLOW =====================================================================
 Step     35 Time=  1.15000E+00 Dt=  5.00000E-02 [y] snes_conv_reason:   11
  newton =   1 [      40] linear =   124 [      5159] cuts =  0 [   0]
  --> max chng: dpmx=   4.7812E-01 dtmpmx=   1.1206E-01

== TH FLOW =====================================================================
 Step     36 Time=  1.20000E+00 Dt=  5.00000E-02 [y] snes_conv_reason:   11
  newton =   1 [      41] linear =   125 [      5284] cuts =  0 [   0]
  --> max chng: dpmx=   5.0160E-01 dtmpmx=   1.0750E-01

== TH FLOW =====================================================================
 Step     37 Time=  1.25000E+00 Dt=  5.00000E-02 [y] snes_conv_reason:   11
  newton =   1 [      42] linear =   122 [      5406] cuts =  0 [   0]
  --> max chng: dpmx=   5.2555E-01 dtmpmx=   1.0330E-01

== TH FLOW =====================================================================
 Step     38 Time=  1.30000E+00 Dt=  5.00000E-02 [y] snes_conv_reason:   11
  newton =   1 [      43] linear =   131 [      5537] cuts =  0 [   0]
  --> max chng: dpmx=   5.4945E-01 dtmpmx=   9.9393E-02

== TH FLOW =====================================================================
 Step     39 Time=  1.35000E+00 Dt=  5.00000E-02 [y] snes_conv_reason:   11
  newton =   1 [      44] linear =   127 [      5664] cuts =  0 [   0]
  --> max chng: dpmx=   5.7393E-01 dtmpmx=   9.5757E-02

== TH FLOW =====================================================================
 Step     40 Time=  1.40000E+00 Dt=  5.00000E-02 [y] snes_conv_reason:   11
  newton =   1 [      45] linear =   127 [      5791] cuts =  0 [   0]
  --> max chng: dpmx=   5.9813E-01 dtmpmx=   9.2364E-02

== TH FLOW =====================================================================
 Step     41 Time=  1.45000E+00 Dt=  5.00000E-02 [y] snes_conv_reason:   11
  newton =   1 [      46] linear =   116 [      5907] cuts =  0 [   0]
  --> max chng: dpmx=   6.2266E-01 dtmpmx=   8.9188E-02

== TH FLOW =====================================================================
 Step     42 Time=  1.50000E+00 Dt=  5.00000E-02 [y] snes_conv_reason:   11
  newton =   1 [      47] linear =   125 [      6032] cuts =  0 [   0]
  --> max chng: dpmx=   6.4670E-01 dtmpmx=   8.6209E-02

== TH FLOW =====================================================================
 Step     43 Time=  1.55000E+00 Dt=  5.00000E-02 [y] snes_conv_reason:   11
  newton =   1 [      48] linear =   122 [      6154] cuts =  0 [   0]
  --> max chng: dpmx=   6.7106E-01 dtmpmx=   8.3417E-02

== TH FLOW =====================================================================
 Step     44 Time=  1.60000E+00 Dt=  5.00000E-02 [y] snes_conv_reason:   11
  newton =   1 [      49] linear =   115 [      6269] cuts =  0 [   0]
  --> max chng: dpmx=   6.9461E-01 dtmpmx=   8.0795E-02

== TH FLOW =====================================================================
 Step     45 Time=  1.65000E+00 Dt=  5.00000E-02 [y] snes_conv_reason:   11
  newton =   1 [      50] linear =   116 [      6385] cuts =  0 [   0]
  --> max chng: dpmx=   7.1772E-01 dtmpmx=   7.8321E-02

== TH FLOW =====================================================================
 Step     46 Time=  1.70000E+00 Dt=  5.00000E-02 [y] snes_conv_reason:   11
  newton =   1 [      51] linear =   123 [      6508] cuts =  0 [   0]
  --> max chng: dpmx=   7.3972E-01 dtmpmx=   7.5982E-02

== TH FLOW =====================================================================
 Step     47 Time=  1.75000E+00 Dt=  5.00000E-02 [y] snes_conv_reason:   11
  newton =   1 [      52] linear =   128 [      6636] cuts =  0 [   0]
  --> max chng: dpmx=   7.5986E-01 dtmpmx=   7.3768E-02

== TH FLOW =====================================================================
 Step     48 Time=  1.80000E+00 Dt=  5.00000E-02 [y] snes_conv_reason:   11
  newton =   1 [      53] linear =   121 [      6757] cuts =  0 [   0]
  --> max chng: dpmx=   7.7822E-01 dtmpmx=   7.1669E-02

== TH FLOW =====================================================================
 Step     49 Time=  1.85000E+00 Dt=  5.00000E-02 [y] snes_conv_reason:   11
  newton =   1 [      54] linear =   122 [      6879] cuts =  0 [   0]
  --> max chng: dpmx=   7.9322E-01 dtmpmx=   6.9676E-02

== TH FLOW =====================================================================
 Step     50 Time=  1.90000E+00 Dt=  5.00000E-02 [y] snes_conv_reason:   11
  newton =   1 [      55] linear =   121 [      7000] cuts =  0 [   0]
  --> max chng: dpmx=   8.0501E-01 dtmpmx=   6.7789E-02

== TH FLOW =====================================================================
 Step     51 Time=  1.95000E+00 Dt=  5.00000E-02 [y] snes_conv_reason:   11
  newton =   1 [      56] linear =   119 [      7119] cuts =  0 [   0]
  --> max chng: dpmx=   8.1222E-01 dtmpmx=   6.5996E-02

== TH FLOW =====================================================================
 Step     52 Time=  2.00000E+00 Dt=  5.00000E-02 [y] snes_conv_reason:   11
  newton =   1 [      57] linear =   116 [      7235] cuts =  0 [   0]
  --> max chng: dpmx=   8.1392E-01 dtmpmx=   6.4288E-02

== TH FLOW =====================================================================
 Step     53 Time=  2.05000E+00 Dt=  5.00000E-02 [y] snes_conv_reason:   11
  newton =   1 [      58] linear =   116 [      7351] cuts =  0 [   0]
  --> max chng: dpmx=   8.0993E-01 dtmpmx=   6.2658E-02

== TH FLOW =====================================================================
 Step     54 Time=  2.10000E+00 Dt=  5.00000E-02 [y] snes_conv_reason:   11
  newton =   1 [      59] linear =   120 [      7471] cuts =  0 [   0]
  --> max chng: dpmx=   7.9878E-01 dtmpmx=   6.1101E-02

== TH FLOW =====================================================================
 Step     55 Time=  2.15000E+00 Dt=  5.00000E-02 [y] snes_conv_reason:   11
  newton =   1 [      60] linear =   123 [      7594] cuts =  0 [   0]
  --> max chng: dpmx=   7.8064E-01 dtmpmx=   5.9613E-02

== TH FLOW =====================================================================
 Step     56 Time=  2.20000E+00 Dt=  5.00000E-02 [y] snes_conv_reason:   11
  newton =   1 [      61] linear =   118 [      7712] cuts =  0 [   0]
  --> max chng: dpmx=   7.5523E-01 dtmpmx=   5.8190E-02

== TH FLOW =====================================================================
 Step     57 Time=  2.25000E+00 Dt=  5.00000E-02 [y] snes_conv_reason:   11
  newton =   1 [      62] linear =   113 [      7825] cuts =  0 [   0]
  --> max chng: dpmx=   7.2281E-01 dtmpmx=   5.6835E-02

== TH FLOW =====================================================================
 Step     58 Time=  2.30000E+00 Dt=  5.00000E-02 [y] snes_conv_reason:   11
  newton =   1 [      63] linear =   127 [      7952] cuts =  0 [   0]
  --> max chng: dpmx=   6.8387E-01 dtmpmx=   5.5535E-02

== TH FLOW =====================================================================
 Step     59 Time=  2.35000E+00 Dt=  5.00000E-02 [y] snes_conv_reason:   11
  newton =   1 [      64] linear =   123 [      8075] cuts =  0 [   0]
  --> max chng: dpmx=   6.3891E-01 dtmpmx=   5.4289E-02

== TH FLOW =====================================================================
 Step     60 Time=  2.40000E+00 Dt=  5.00000E-02 [y] snes_conv_reason:   11
  newton =   1 [      65] linear =   122 [      8197] cuts =  0 [   0]
  --> max chng: dpmx=   5.8944E-01 dtmpmx=   5.3092E-02

== TH FLOW =====================================================================
 Step     61 Time=  2.45000E+00 Dt=  5.00000E-02 [y] snes_conv_reason:   11
  newton =   1 [      66] linear =   125 [      8322] cuts =  0 [   0]
  --> max chng: dpmx=   5.3674E-01 dtmpmx=   5.1942E-02

== TH FLOW =====================================================================
 Step     62 Time=  2.50000E+00 Dt=  5.00000E-02 [y] snes_conv_reason:   11
  newton =   1 [      67] linear =   127 [      8449] cuts =  0 [   0]
  --> max chng: dpmx=   4.8221E-01 dtmpmx=   5.0836E-02

== TH FLOW =====================================================================
 Step     63 Time=  2.55000E+00 Dt=  5.00000E-02 [y] snes_conv_reason:   11
  newton =   1 [      68] linear =   128 [      8577] cuts =  0 [   0]
  --> max chng: dpmx=   4.2732E-01 dtmpmx=   4.9184E-02

== TH FLOW =====================================================================
 Step     64 Time=  2.60000E+00 Dt=  5.00000E-02 [y] snes_conv_reason:   11
  newton =   1 [      69] linear =   126 [      8703] cuts =  0 [   0]
  --> max chng: dpmx=   3.7360E-01 dtmpmx=   4.6809E-02

== TH FLOW =====================================================================
 Step     65 Time=  2.65000E+00 Dt=  5.00000E-02 [y] snes_conv_reason:   11
  newton =   1 [      70] linear =   129 [      8832] cuts =  0 [   0]
  --> max chng: dpmx=   3.2202E-01 dtmpmx=   4.3730E-02

== TH FLOW =====================================================================
 Step     66 Time=  2.70000E+00 Dt=  5.00000E-02 [y] snes_conv_reason:   11
  newton =   1 [      71] linear =   131 [      8963] cuts =  0 [   0]
  --> max chng: dpmx=   2.7385E-01 dtmpmx=   4.0097E-02

== TH FLOW =====================================================================
 Step     67 Time=  2.75000E+00 Dt=  5.00000E-02 [y] snes_conv_reason:   11
  newton =   1 [      72] linear =   131 [      9094] cuts =  0 [   0]
  --> max chng: dpmx=   2.2971E-01 dtmpmx=   3.6106E-02

== TH FLOW =====================================================================
 Step     68 Time=  2.80000E+00 Dt=  5.00000E-02 [y] snes_conv_reason:   11
  newton =   1 [      73] linear =   132 [      9226] cuts =  0 [   0]
  --> max chng: dpmx=   1.8991E-01 dtmpmx=   3.1947E-02

== TH FLOW =====================================================================
 Step     69 Time=  2.85000E+00 Dt=  5.00000E-02 [y] snes_conv_reason:   11
  newton =   1 [      74] linear =   135 [      9361] cuts =  0 [   0]
  --> max chng: dpmx=   1.5505E-01 dtmpmx=   2.7789E-02

== TH FLOW =====================================================================
 Step     70 Time=  2.90000E+00 Dt=  5.00000E-02 [y] snes_conv_reason:   11
  newton =   1 [      75] linear =   130 [      9491] cuts =  0 [   0]
  --> max chng: dpmx=   1.2485E-01 dtmpmx=   2.3776E-02

== TH FLOW =====================================================================
 Step     71 Time=  2.95000E+00 Dt=  5.00000E-02 [y] snes_conv_reason:   11
  newton =   1 [      76] linear =   134 [      9625] cuts =  0 [   0]
  --> max chng: dpmx=   9.9175E-02 dtmpmx=   2.0019E-02

== TH FLOW =====================================================================
 Step     72 Time=  3.00000E+00 Dt=  5.00000E-02 [y] snes_conv_reason:   11
  newton =   1 [      77] linear =   135 [      9760] cuts =  0 [   0]
  --> max chng: dpmx=   7.7762E-02 dtmpmx=   1.6595E-02

== TH FLOW =====================================================================
 Step     73 Time=  3.05000E+00 Dt=  5.00000E-02 [y] snes_conv_reason:   11
  newton =   1 [      78] linear =   135 [      9895] cuts =  0 [   0]
  --> max chng: dpmx=   6.0202E-02 dtmpmx=   1.3549E-02

== TH FLOW =====================================================================
 Step     74 Time=  3.10000E+00 Dt=  5.00000E-02 [y] snes_conv_reason:   11
  newton =   1 [      79] linear =   134 [     10029] cuts =  0 [   0]
  --> max chng: dpmx=   4.5975E-02 dtmpmx=   1.0900E-02

== TH FLOW =====================================================================
 Step     75 Time=  3.15000E+00 Dt=  5.00000E-02 [y] snes_conv_reason:   11
  newton =   1 [      80] linear =   136 [     10165] cuts =  0 [   0]
  --> max chng: dpmx=   3.4676E-02 dtmpmx=   8.6426E-03

== TH FLOW =====================================================================
 Step     76 Time=  3.20000E+00 Dt=  5.00000E-02 [y] snes_conv_reason:   11
  newton =   1 [      81] linear =   135 [     10300] cuts =  0 [   0]
  --> max chng: dpmx=   2.5809E-02 dtmpmx=   6.7560E-03

== TH FLOW =====================================================================
 Step     77 Time=  3.25000E+00 Dt=  5.00000E-02 [y] snes_conv_reason:   11
  newton =   1 [      82] linear =   137 [     10437] cuts =  0 [   0]
  --> max chng: dpmx=   1.8960E-02 dtmpmx=   5.2078E-03

== TH FLOW =====================================================================
 Step     78 Time=  3.30000E+00 Dt=  5.00000E-02 [y] snes_conv_reason:   11
  newton =   1 [      83] linear =   136 [     10573] cuts =  0 [   0]
  --> max chng: dpmx=   1.3740E-02 dtmpmx=   3.9591E-03

== TH FLOW =====================================================================
 Step     79 Time=  3.35000E+00 Dt=  5.00000E-02 [y] snes_conv_reason:   11
  newton =   1 [      84] linear =   136 [     10709] cuts =  0 [   0]
  --> max chng: dpmx=   9.8155E-03 dtmpmx=   2.9684E-03

== TH FLOW =====================================================================
 Step     80 Time=  3.40000E+00 Dt=  5.00000E-02 [y] snes_conv_reason:   11
  newton =   1 [      85] linear =   138 [     10847] cuts =  0 [   0]
  --> max chng: dpmx=   6.9095E-03 dtmpmx=   2.1947E-03

== TH FLOW =====================================================================
 Step     81 Time=  3.45000E+00 Dt=  5.00000E-02 [y] snes_conv_reason:   11
  newton =   1 [      86] linear =   140 [     10987] cuts =  0 [   0]
  --> max chng: dpmx=   4.7855E-03 dtmpmx=   1.5997E-03

== TH FLOW =====================================================================
 Step     82 Time=  3.50000E+00 Dt=  5.00000E-02 [y] snes_conv_reason:   11
  newton =   1 [      87] linear =   139 [     11126] cuts =  0 [   0]
  --> max chng: dpmx=   3.2494E-03 dtmpmx=   1.1486E-03

== TH FLOW =====================================================================
 Step     83 Time=  3.55000E+00 Dt=  5.00000E-02 [y] snes_conv_reason:   11
  newton =   1 [      88] linear =   139 [     11265] cuts =  0 [   0]
  --> max chng: dpmx=   2.1601E-03 dtmpmx=   8.1144E-04

== TH FLOW =====================================================================
 Step     84 Time=  3.60000E+00 Dt=  5.00000E-02 [y] snes_conv_reason:   11
  newton =   1 [      89] linear =   137 [     11402] cuts =  0 [   0]
  --> max chng: dpmx=   1.3986E-03 dtmpmx=   5.6290E-04

== TH FLOW =====================================================================
 Step     85 Time=  3.65000E+00 Dt=  5.00000E-02 [y] snes_conv_reason:   11
  newton =   1 [      90] linear =   107 [     11509] cuts =  0 [   0]
  --> max chng: dpmx=   8.7603E-04 dtmpmx=   3.8210E-04

== TH FLOW =====================================================================
 Step     86 Time=  3.70000E+00 Dt=  5.00000E-02 [y] snes_conv_reason:   11
  newton =   1 [      91] linear =   135 [     11644] cuts =  0 [   0]
  --> max chng: dpmx=   5.2542E-04 dtmpmx=   2.5228E-04

== TH FLOW =====================================================================
 Step     87 Time=  3.75000E+00 Dt=  5.00000E-02 [y] snes_conv_reason:   11
  newton =   1 [      92] linear =   134 [     11778] cuts =  0 [   0]
  --> max chng: dpmx=   5.0170E-04 dtmpmx=   1.6025E-04

== TH FLOW =====================================================================
 Step     88 Time=  3.80000E+00 Dt=  5.00000E-02 [y] snes_conv_reason:   11
  newton =   1 [      93] linear =   128 [     11906] cuts =  0 [   0]
  --> max chng: dpmx=   5.7817E-04 dtmpmx=   9.5835E-05

== TH FLOW =====================================================================
 Step     89 Time=  3.85000E+00 Dt=  5.00000E-02 [y] snes_conv_reason:   11
  newton =   1 [      94] linear =   130 [     12036] cuts =  0 [   0]
  --> max chng: dpmx=   6.2224E-04 dtmpmx=   5.1323E-05

== TH FLOW =====================================================================
 Step     90 Time=  3.90000E+00 Dt=  5.00000E-02 [y] snes_conv_reason:   11
  newton =   1 [      95] linear =   123 [     12159] cuts =  0 [   0]
  --> max chng: dpmx=   6.4249E-04 dtmpmx=   3.6222E-05

== TH FLOW =====================================================================
 Step     91 Time=  3.95000E+00 Dt=  5.00000E-02 [y] snes_conv_reason:   11
  newton =   1 [      96] linear =   118 [     12277] cuts =  0 [   0]
  --> max chng: dpmx=   6.4501E-04 dtmpmx=   3.5722E-05

== TH FLOW =====================================================================
 Step     92 Time=  4.00000E+00 Dt=  5.00000E-02 [y] snes_conv_reason:   11
  newton =   1 [      97] linear =   116 [     12393] cuts =  0 [   0]
  --> max chng: dpmx=   6.3531E-04 dtmpmx=   3.5222E-05

== TH FLOW =====================================================================
 Step     93 Time=  4.05000E+00 Dt=  5.00000E-02 [y] snes_conv_reason:   11
  newton =   1 [      98] linear =   125 [     12518] cuts =  0 [   0]
  --> max chng: dpmx=   6.1700E-04 dtmpmx=   3.4720E-05

== TH FLOW =====================================================================
 Step     94 Time=  4.10000E+00 Dt=  5.00000E-02 [y] snes_conv_reason:   11
  newton =   1 [      99] linear =   123 [     12641] cuts =  0 [   0]
  --> max chng: dpmx=   5.9226E-04 dtmpmx=   3.4215E-05

== TH FLOW =====================================================================
 Step     95 Time=  4.15000E+00 Dt=  5.00000E-02 [y] snes_conv_reason:   11
  newton =   1 [     100] linear =   116 [     12757] cuts =  0 [   0]
  --> max chng: dpmx=   5.6398E-04 dtmpmx=   3.3711E-05

== TH FLOW =====================================================================
 Step     96 Time=  4.20000E+00 Dt=  5.00000E-02 [y] snes_conv_reason:   11
  newton =   1 [     101] linear =   116 [     12873] cuts =  0 [   0]
  --> max chng: dpmx=   5.3253E-04 dtmpmx=   3.3209E-05

== TH FLOW =====================================================================
 Step     97 Time=  4.25000E+00 Dt=  5.00000E-02 [y] snes_conv_reason:   11
  newton =   1 [     102] linear =   114 [     12987] cuts =  0 [   0]
  --> max chng: dpmx=   4.9965E-04 dtmpmx=   3.2707E-05

== TH FLOW =====================================================================
 Step     98 Time=  4.30000E+00 Dt=  5.00000E-02 [y] snes_conv_reason:   11
  newton =   1 [     103] linear =   125 [     13112] cuts =  0 [   0]
  --> max chng: dpmx=   4.6593E-04 dtmpmx=   3.2204E-05

== TH FLOW =====================================================================
 Step     99 Time=  4.35000E+00 Dt=  5.00000E-02 [y] snes_conv_reason:   11
  newton =   1 [     104] linear =   122 [     13234] cuts =  0 [   0]
  --> max chng: dpmx=   4.3204E-04 dtmpmx=   3.1466E-05

== TH FLOW =====================================================================
 Step    100 Time=  4.40000E+00 Dt=  5.00000E-02 [y] snes_conv_reason:   11
  newton =   1 [     105] linear =   125 [     13359] cuts =  0 [   0]
  --> max chng: dpmx=   3.9803E-04 dtmpmx=   3.0422E-05

== TH FLOW =====================================================================
 Step    101 Time=  4.45000E+00 Dt=  5.00000E-02 [y] snes_conv_reason:   11
  newton =   1 [     106] linear =   124 [     13483] cuts =  0 [   0]
  --> max chng: dpmx=   3.6484E-04 dtmpmx=   2.9178E-05

== TH FLOW =====================================================================
 Step    102 Time=  4.50000E+00 Dt=  5.00000E-02 [y] snes_conv_reason:   11
  newton =   1 [     107] linear =   128 [     13611] cuts =  0 [   0]
  --> max chng: dpmx=   3.3255E-04 dtmpmx=   2.7753E-05

== TH FLOW =====================================================================
 Step    103 Time=  4.55000E+00 Dt=  5.00000E-02 [y] snes_conv_reason:   11
  newton =   1 [     108] linear =   128 [     13739] cuts =  0 [   0]
  --> max chng: dpmx=   3.0132E-04 dtmpmx=   2.6201E-05

== TH FLOW =====================================================================
 Step    104 Time=  4.60000E+00 Dt=  5.00000E-02 [y] snes_conv_reason:   11
  newton =   1 [     109] linear =   125 [     13864] cuts =  0 [   0]
  --> max chng: dpmx=   2.7139E-04 dtmpmx=   2.4561E-05

== TH FLOW =====================================================================
 Step    105 Time=  4.65000E+00 Dt=  5.00000E-02 [y] snes_conv_reason:   11
  newton =   1 [     110] linear =   128 [     13992] cuts =  0 [   0]
  --> max chng: dpmx=   2.4314E-04 dtmpmx=   2.2867E-05

== TH FLOW =====================================================================
 Step    106 Time=  4.70000E+00 Dt=  5.00000E-02 [y] snes_conv_reason:   11
  newton =   1 [     111] linear =   131 [     14123] cuts =  0 [   0]
  --> max chng: dpmx=   2.1650E-04 dtmpmx=   2.1148E-05

== TH FLOW =====================================================================
 Step    107 Time=  4.75000E+00 Dt=  5.00000E-02 [y] snes_conv_reason:   11
  newton =   1 [     112] linear =   127 [     14250] cuts =  0 [   0]
  --> max chng: dpmx=   1.9162E-04 dtmpmx=   1.9427E-05

== TH FLOW =====================================================================
 Step    108 Time=  4.80000E+00 Dt=  5.00000E-02 [y] snes_conv_reason:   11
  newton =   1 [     113] linear =   130 [     14380] cuts =  0 [   0]
  --> max chng: dpmx=   1.6861E-04 dtmpmx=   1.7727E-05

== TH FLOW =====================================================================
 Step    109 Time=  4.85000E+00 Dt=  5.00000E-02 [y] snes_conv_reason:   11
  newton =   1 [     114] linear =   131 [     14511] cuts =  0 [   0]
  --> max chng: dpmx=   1.4743E-04 dtmpmx=   1.6068E-05

== TH FLOW =====================================================================
 Step    110 Time=  4.90000E+00 Dt=  5.00000E-02 [y] snes_conv_reason:   11
  newton =   1 [     115] linear =   131 [     14642] cuts =  0 [   0]
  --> max chng: dpmx=   1.2814E-04 dtmpmx=   1.4466E-05

== TH FLOW =====================================================================
 Step    111 Time=  4.95000E+00 Dt=  5.00000E-02 [y] snes_conv_reason:   11
  newton =   1 [     116] linear =   132 [     14774] cuts =  0 [   0]
  --> max chng: dpmx=   1.1068E-04 dtmpmx=   1.2935E-05

== TH FLOW =====================================================================
 Step    112 Time=  5.00000E+00 Dt=  5.00000E-02 [y] snes_conv_reason:   11
  newton =   1 [     117] linear =   130 [     14904] cuts =  0 [   0]
  --> max chng: dpmx=   9.4986E-05 dtmpmx=   1.1487E-05

== TH FLOW =====================================================================
 Step    113 Time=  5.05000E+00 Dt=  5.00000E-02 [y] snes_conv_reason:   11
  newton =   1 [     118] linear =   132 [     15036] cuts =  0 [   0]
  --> max chng: dpmx=   8.1014E-05 dtmpmx=   1.0130E-05

== TH FLOW =====================================================================
 Step    114 Time=  5.10000E+00 Dt=  5.00000E-02 [y] snes_conv_reason:   11
  newton =   1 [     119] linear =   131 [     15167] cuts =  0 [   0]
  --> max chng: dpmx=   6.8643E-05 dtmpmx=   8.8722E-06

== TH FLOW =====================================================================
 Step    115 Time=  5.15000E+00 Dt=  5.00000E-02 [y] snes_conv_reason:   11
  newton =   1 [     120] linear =   133 [     15300] cuts =  0 [   0]
  --> max chng: dpmx=   5.7771E-05 dtmpmx=   7.7160E-06

== TH FLOW =====================================================================
 Step    116 Time=  5.20000E+00 Dt=  5.00000E-02 [y] snes_conv_reason:   11
  newton =   1 [     121] linear =   132 [     15432] cuts =  0 [   0]
  --> max chng: dpmx=   4.8318E-05 dtmpmx=   6.6635E-06

== TH FLOW =====================================================================
 Step    117 Time=  5.25000E+00 Dt=  5.00000E-02 [y] snes_conv_reason:   11
  newton =   1 [     122] linear =   132 [     15564] cuts =  0 [   0]
  --> max chng: dpmx=   4.0120E-05 dtmpmx=   5.7136E-06

== TH FLOW =====================================================================
 Step    118 Time=  5.30000E+00 Dt=  5.00000E-02 [y] snes_conv_reason:   11
  newton =   1 [     123] linear =   135 [     15699] cuts =  0 [   0]
  --> max chng: dpmx=   3.3092E-05 dtmpmx=   4.8644E-06

== TH FLOW =====================================================================
 Step    119 Time=  5.35000E+00 Dt=  5.00000E-02 [y] snes_conv_reason:   11
  newton =   1 [     124] linear =   127 [     15826] cuts =  0 [   0]
  --> max chng: dpmx=   2.7110E-05 dtmpmx=   4.1115E-06

== TH FLOW =====================================================================
 Step    120 Time=  5.40000E+00 Dt=  5.00000E-02 [y] snes_conv_reason:   11
  newton =   1 [     125] linear =   133 [     15959] cuts =  0 [   0]
  --> max chng: dpmx=   2.2033E-05 dtmpmx=   3.4499E-06

== TH FLOW =====================================================================
 Step    121 Time=  5.45000E+00 Dt=  5.00000E-02 [y] snes_conv_reason:   11
  newton =   1 [     126] linear =   135 [     16094] cuts =  0 [   0]
  --> max chng: dpmx=   1.7790E-05 dtmpmx=   2.8734E-06

== TH FLOW =====================================================================
 Step    122 Time=  5.50000E+00 Dt=  5.00000E-02 [y] snes_conv_reason:   11
  newton =   1 [     127] linear =   134 [     16228] cuts =  0 [   0]
  --> max chng: dpmx=   1.4243E-05 dtmpmx=   2.3754E-06

== TH FLOW =====================================================================
 Step    123 Time=  5.55000E+00 Dt=  5.00000E-02 [y] snes_conv_reason:   11
  newton =   1 [     128] linear =   132 [     16360] cuts =  0 [   0]
  --> max chng: dpmx=   1.1316E-05 dtmpmx=   1.9486E-06

== TH FLOW =====================================================================
 Step    124 Time=  5.60000E+00 Dt=  5.00000E-02 [y] snes_conv_reason:   11
  newton =   1 [     129] linear =   135 [     16495] cuts =  0 [   0]
  --> max chng: dpmx=   8.9129E-06 dtmpmx=   1.5860E-06

== TH FLOW =====================================================================
 Step    125 Time=  5.65000E+00 Dt=  5.00000E-02 [y] snes_conv_reason:   11
  newton =   1 [     130] linear =   135 [     16630] cuts =  0 [   0]
  --> max chng: dpmx=   6.9528E-06 dtmpmx=   1.2804E-06

== TH FLOW =====================================================================
 Step    126 Time=  5.70000E+00 Dt=  5.00000E-02 [y] snes_conv_reason:   11
  newton =   1 [     131] linear =   134 [     16764] cuts =  0 [   0]
  --> max chng: dpmx=   5.3736E-06 dtmpmx=   1.0249E-06

== TH FLOW =====================================================================
 Step    127 Time=  5.75000E+00 Dt=  5.00000E-02 [y] snes_conv_reason:   11
  newton =   1 [     132] linear =   137 [     16901] cuts =  0 [   0]
  --> max chng: dpmx=   4.1066E-06 dtmpmx=   8.1312E-07

== TH FLOW =====================================================================
 Step    128 Time=  5.80000E+00 Dt=  5.00000E-02 [y] snes_conv_reason:   11
  newton =   1 [     133] linear =   136 [     17037] cuts =  0 [   0]
  --> max chng: dpmx=   3.0994E-06 dtmpmx=   6.3886E-07

== TH FLOW =====================================================================
 Step    129 Time=  5.85000E+00 Dt=  5.00000E-02 [y] snes_conv_reason:   11
  newton =   1 [     134] linear =   138 [     17175] cuts =  0 [   0]
  --> max chng: dpmx=   2.3086E-06 dtmpmx=   4.9678E-07

== TH FLOW =====================================================================
 Step    130 Time=  5.90000E+00 Dt=  5.00000E-02 [y] snes_conv_reason:   11
  newton =   1 [     135] linear =   144 [     17319] cuts =  0 [   0]
  --> max chng: dpmx=   1.6919E-06 dtmpmx=   3.8183E-07

== TH FLOW =====================================================================
 Step    131 Time=  5.95000E+00 Dt=  5.00000E-02 [y] snes_conv_reason:   11
  newton =   1 [     136] linear =   139 [     17458] cuts =  0 [   0]
  --> max chng: dpmx=   1.2154E-06 dtmpmx=   2.8960E-07

== TH FLOW =====================================================================
 Step    132 Time=  6.00000E+00 Dt=  5.00000E-02 [y] snes_conv_reason:   11
  newton =   1 [     137] linear =   138 [     17596] cuts =  0 [   0]
  --> max chng: dpmx=   8.5379E-07 dtmpmx=   2.1631E-07

== TH FLOW =====================================================================
 Step    133 Time=  6.05000E+00 Dt=  5.00000E-02 [y] snes_conv_reason:   11
  newton =   1 [     138] linear =   134 [     17730] cuts =  0 [   0]
  --> max chng: dpmx=   5.8347E-07 dtmpmx=   1.5846E-07

== TH FLOW =====================================================================
 Step    134 Time=  6.10000E+00 Dt=  5.00000E-02 [y] snes_conv_reason:   11
  newton =   1 [     139] linear =   136 [     17866] cuts =  0 [   0]
  --> max chng: dpmx=   3.8452E-07 dtmpmx=   1.1336E-07

== TH FLOW =====================================================================
 Step    135 Time=  6.15000E+00 Dt=  5.00000E-02 [y] snes_conv_reason:   11
  newton =   1 [     140] linear =   137 [     18003] cuts =  0 [   0]
  --> max chng: dpmx=   2.4203E-07 dtmpmx=   7.8521E-08

== TH FLOW =====================================================================
 Step    136 Time=  6.20000E+00 Dt=  5.00000E-02 [y] snes_conv_reason:   11
  newton =   1 [     141] linear =   135 [     18138] cuts =  0 [   0]
  --> max chng: dpmx=   1.9092E-07 dtmpmx=   5.1854E-08

== TH FLOW =====================================================================
 Step    137 Time=  6.25000E+00 Dt=  5.00000E-02 [y] snes_conv_reason:   11
  newton =   1 [     142] linear =   134 [     18272] cuts =  0 [   0]
  --> max chng: dpmx=   2.2759E-07 dtmpmx=   3.1787E-08

== TH FLOW =====================================================================
 Step    138 Time=  6.30000E+00 Dt=  5.00000E-02 [y] snes_conv_reason:   11
  newton =   1 [     143] linear =   134 [     18406] cuts =  0 [   0]
  --> max chng: dpmx=   2.4959E-07 dtmpmx=   1.7674E-08

== TH FLOW =====================================================================
 Step    139 Time=  6.35000E+00 Dt=  5.00000E-02 [y] snes_conv_reason:   11
  newton =   1 [     144] linear =   121 [     18527] cuts =  0 [   0]
  --> max chng: dpmx=   2.5972E-07 dtmpmx=   1.7246E-08

== TH FLOW =====================================================================
 Step    140 Time=  6.40000E+00 Dt=  5.00000E-02 [y] snes_conv_reason:   11
  newton =   1 [     145] linear =   124 [     18651] cuts =  0 [   0]
  --> max chng: dpmx=   2.6089E-07 dtmpmx=   1.6875E-08

== TH FLOW =====================================================================
 Step    141 Time=  6.45000E+00 Dt=  5.00000E-02 [y] snes_conv_reason:   11
  newton =   1 [     146] linear =   127 [     18778] cuts =  0 [   0]
  --> max chng: dpmx=   2.5530E-07 dtmpmx=   1.6475E-08

== TH FLOW =====================================================================
 Step    142 Time=  6.50000E+00 Dt=  5.00000E-02 [y] snes_conv_reason:   11
  newton =   1 [     147] linear =   119 [     18897] cuts =  0 [   0]
  --> max chng: dpmx=   2.4494E-07 dtmpmx=   1.6094E-08

== TH FLOW =====================================================================
 Step    143 Time=  6.55000E+00 Dt=  5.00000E-02 [y] snes_conv_reason:   11
  newton =   1 [     148] linear =   113 [     19010] cuts =  0 [   0]
  --> max chng: dpmx=   2.3108E-07 dtmpmx=   1.5721E-08

== TH FLOW =====================================================================
 Step    144 Time=  6.60000E+00 Dt=  5.00000E-02 [y] snes_conv_reason:   11
  newton =   1 [     149] linear =   119 [     19129] cuts =  0 [   0]
  --> max chng: dpmx=   2.1572E-07 dtmpmx=   1.5373E-08

== TH FLOW =====================================================================
 Step    145 Time=  6.65000E+00 Dt=  5.00000E-02 [y] snes_conv_reason:   11
  newton =   1 [     150] linear =   117 [     19246] cuts =  0 [   0]
  --> max chng: dpmx=   1.9907E-07 dtmpmx=   1.5013E-08

== TH FLOW =====================================================================
 Step    146 Time=  6.70000E+00 Dt=  5.00000E-02 [y] snes_conv_reason:   11
  newton =   1 [     151] linear =   124 [     19370] cuts =  0 [   0]
  --> max chng: dpmx=   1.8207E-07 dtmpmx=   1.4671E-08

== TH FLOW =====================================================================
 Step    147 Time=  6.75000E+00 Dt=  5.00000E-02 [y] snes_conv_reason:   11
  newton =   1 [     152] linear =   130 [     19500] cuts =  0 [   0]
  --> max chng: dpmx=   1.6531E-07 dtmpmx=   1.4185E-08

== TH FLOW =====================================================================
 Step    148 Time=  6.80000E+00 Dt=  5.00000E-02 [y] snes_conv_reason:   11
  newton =   1 [     153] linear =   127 [     19627] cuts =  0 [   0]
  --> max chng: dpmx=   1.4901E-07 dtmpmx=   1.3462E-08

== TH FLOW =====================================================================
 Step    149 Time=  6.85000E+00 Dt=  5.00000E-02 [y] snes_conv_reason:   11
  newton =   1 [     154] linear =   128 [     19755] cuts =  0 [   0]
  --> max chng: dpmx=   1.3353E-07 dtmpmx=   1.2738E-08

== TH FLOW =====================================================================
 Step    150 Time=  6.90000E+00 Dt=  5.00000E-02 [y] snes_conv_reason:   11
  newton =   1 [     155] linear =   131 [     19886] cuts =  0 [   0]
  --> max chng: dpmx=   1.1898E-07 dtmpmx=   1.1738E-08

== TH FLOW =====================================================================
 Step    151 Time=  6.95000E+00 Dt=  5.00000E-02 [y] snes_conv_reason:   11
  newton =   1 [     156] linear =   130 [     20016] cuts =  0 [   0]
  --> max chng: dpmx=   1.0547E-07 dtmpmx=   1.0771E-08

== TH FLOW =====================================================================
 Step    152 Time=  7.00000E+00 Dt=  5.00000E-02 [y] snes_conv_reason:   11
  newton =   1 [     157] linear =   129 [     20145] cuts =  0 [   0]
  --> max chng: dpmx=   9.2899E-08 dtmpmx=   9.8065E-09

== TH FLOW =====================================================================
 Step    153 Time=  7.05000E+00 Dt=  5.00000E-02 [y] snes_conv_reason:   11
  newton =   1 [     158] linear =   130 [     20275] cuts =  0 [   0]
  --> max chng: dpmx=   8.1607E-08 dtmpmx=   8.8533E-09

== TH FLOW =====================================================================
 Step    154 Time=  7.10000E+00 Dt=  5.00000E-02 [y] snes_conv_reason:   11
  newton =   1 [     159] linear =   132 [     20407] cuts =  0 [   0]
  --> max chng: dpmx=   7.1363E-08 dtmpmx=   7.9893E-09

== TH FLOW =====================================================================
 Step    155 Time=  7.15000E+00 Dt=  5.00000E-02 [y] snes_conv_reason:   11
  newton =   1 [     160] linear =   129 [     20536] cuts =  0 [   0]
  --> max chng: dpmx=   6.2049E-08 dtmpmx=   7.0758E-09

== TH FLOW =====================================================================
 Step    156 Time=  7.20000E+00 Dt=  5.00000E-02 [y] snes_conv_reason:   11
  newton =   1 [     161] linear =   130 [     20666] cuts =  0 [   0]
  --> max chng: dpmx=   5.3667E-08 dtmpmx=   6.2901E-09

== TH FLOW =====================================================================
 Step    157 Time=  7.25000E+00 Dt=  5.00000E-02 [y] snes_conv_reason:   11
  newton =   1 [     162] linear =   133 [     20799] cuts =  0 [   0]
  --> max chng: dpmx=   4.6333E-08 dtmpmx=   5.5777E-09

== TH FLOW =====================================================================
 Step    158 Time=  7.30000E+00 Dt=  5.00000E-02 [y] snes_conv_reason:   11
  newton =   1 [     163] linear =   132 [     20931] cuts =  0 [   0]
  --> max chng: dpmx=   3.9698E-08 dtmpmx=   4.9087E-09

== TH FLOW =====================================================================
 Step    159 Time=  7.35000E+00 Dt=  5.00000E-02 [y] snes_conv_reason:   11
  newton =   1 [     164] linear =   130 [     21061] cuts =  0 [   0]
  --> max chng: dpmx=   3.3993E-08 dtmpmx=   4.2548E-09

== TH FLOW =====================================================================
 Step    160 Time=  7.40000E+00 Dt=  5.00000E-02 [y] snes_conv_reason:   11
  newton =   1 [     165] linear =   131 [     21192] cuts =  0 [   0]
  --> max chng: dpmx=   2.8871E-08 dtmpmx=   3.7209E-09

== TH FLOW =====================================================================
 Step    161 Time=  7.45000E+00 Dt=  5.00000E-02 [y] snes_conv_reason:   11
  newton =   1 [     166] linear =   132 [     21324] cuts =  0 [   0]
  --> max chng: dpmx=   2.4447E-08 dtmpmx=   3.2158E-09

== TH FLOW =====================================================================
 Step    162 Time=  7.50000E+00 Dt=  5.00000E-02 [y] snes_conv_reason:   11
  newton =   1 [     167] linear =   131 [     21455] cuts =  0 [   0]
  --> max chng: dpmx=   2.0606E-08 dtmpmx=   2.7715E-09

== TH FLOW =====================================================================
 Step    163 Time=  7.55000E+00 Dt=  5.00000E-02 [y] snes_conv_reason:   11
  newton =   1 [     168] linear =   134 [     21589] cuts =  0 [   0]
  --> max chng: dpmx=   1.7346E-08 dtmpmx=   2.3648E-09

== TH FLOW =====================================================================
 Step    164 Time=  7.60000E+00 Dt=  5.00000E-02 [y] snes_conv_reason:   11
  newton =   1 [     169] linear =   134 [     21723] cuts =  0 [   0]
  --> max chng: dpmx=   1.4435E-08 dtmpmx=   2.0056E-09

== TH FLOW =====================================================================
 Step    165 Time=  7.65000E+00 Dt=  5.00000E-02 [y] snes_conv_reason:   11
  newton =   1 [     170] linear =   134 [     21857] cuts =  0 [   0]
  --> max chng: dpmx=   1.1991E-08 dtmpmx=   1.7605E-09

== TH FLOW =====================================================================
 Step    166 Time=  7.70000E+00 Dt=  5.00000E-02 [y] snes_conv_reason:   11
  newton =   1 [     171] linear =   135 [     21992] cuts =  0 [   0]
  --> max chng: dpmx=   9.8953E-09 dtmpmx=   1.4558E-09

== TH FLOW =====================================================================
 Step    167 Time=  7.75000E+00 Dt=  5.00000E-02 [y] snes_conv_reason:   11
  newton =   1 [     172] linear =   132 [     22124] cuts =  0 [   0]
  --> max chng: dpmx=   8.1491E-09 dtmpmx=   1.2125E-09

== TH FLOW =====================================================================
 Step    168 Time=  7.80000E+00 Dt=  5.00000E-02 [y] snes_conv_reason:   11
  newton =   1 [     173] linear =   133 [     22257] cuts =  0 [   0]
  --> max chng: dpmx=   6.6357E-09 dtmpmx=   1.0273E-09

== TH FLOW =====================================================================
 Step    169 Time=  7.85000E+00 Dt=  5.00000E-02 [y] snes_conv_reason:   11
  newton =   1 [     174] linear =   136 [     22393] cuts =  0 [   0]
  --> max chng: dpmx=   5.4715E-09 dtmpmx=   8.6646E-10

== TH FLOW =====================================================================
 Step    170 Time=  7.90000E+00 Dt=  5.00000E-02 [y] snes_conv_reason:   11
  newton =   1 [     175] linear =   139 [     22532] cuts =  0 [   0]
  --> max chng: dpmx=   4.4238E-09 dtmpmx=   7.1291E-10

== TH FLOW =====================================================================
 Step    171 Time=  7.95000E+00 Dt=  5.00000E-02 [y] snes_conv_reason:   11
  newton =   1 [     176] linear =   136 [     22668] cuts =  0 [   0]
  --> max chng: dpmx=   3.4925E-09 dtmpmx=   5.5816E-10

== TH FLOW =====================================================================
 Step    172 Time=  8.00000E+00 Dt=  5.00000E-02 [y] snes_conv_reason:   11
  newton =   1 [     177] linear =   129 [     22797] cuts =  0 [   0]
  --> max chng: dpmx=   2.7940E-09 dtmpmx=   4.6114E-10

== TH FLOW =====================================================================
 Step    173 Time=  8.05000E+00 Dt=  5.00000E-02 [y] snes_conv_reason:   11
  newton =   1 [     178] linear =   134 [     22931] cuts =  0 [   0]
  --> max chng: dpmx=   2.2119E-09 dtmpmx=   3.7407E-10

== TH FLOW =====================================================================
 Step    174 Time=  8.10000E+00 Dt=  5.00000E-02 [y] snes_conv_reason:   11
  newton =   1 [     179] linear =   135 [     23066] cuts =  0 [   0]
  --> max chng: dpmx=   1.7462E-09 dtmpmx=   3.2082E-10

== TH FLOW =====================================================================
 Step    175 Time=  8.15000E+00 Dt=  5.00000E-02 [y] snes_conv_reason:   11
  newton =   1 [     180] linear =   133 [     23199] cuts =  0 [   0]
  --> max chng: dpmx=   1.3970E-09 dtmpmx=   2.6390E-10

== TH FLOW =====================================================================
 Step    176 Time=  8.20000E+00 Dt=  5.00000E-02 [y] snes_conv_reason:   11
  newton =   1 [     181] linear =   133 [     23332] cuts =  0 [   0]
  --> max chng: dpmx=   1.1642E-09 dtmpmx=   2.5463E-10

== TH FLOW =====================================================================
 Step    177 Time=  8.25000E+00 Dt=  5.00000E-02 [y] snes_conv_reason:   11
  newton =   1 [     182] linear =   129 [     23461] cuts =  0 [   0]
  --> max chng: dpmx=   8.1491E-10 dtmpmx=   1.7490E-10

== TH FLOW =====================================================================
 Step    178 Time=  8.30000E+00 Dt=  5.00000E-02 [y] snes_conv_reason:   11
  newton =   1 [     183] linear =   132 [     23593] cuts =  0 [   0]
  --> max chng: dpmx=   6.9849E-10 dtmpmx=   1.2324E-10

== TH FLOW =====================================================================
 Step    179 Time=  8.35000E+00 Dt=  5.00000E-02 [y] snes_conv_reason:   11
  newton =   1 [     184] linear =   139 [     23732] cuts =  0 [   0]
  --> max chng: dpmx=   4.6566E-10 dtmpmx=   1.1801E-10

== TH FLOW =====================================================================
 Step    180 Time=  8.40000E+00 Dt=  5.00000E-02 [y] snes_conv_reason:   11
  newton =   1 [     185] linear =   131 [     23863] cuts =  0 [   0]
  --> max chng: dpmx=   3.4925E-10 dtmpmx=   9.7966E-11

== TH FLOW =====================================================================
 Step    181 Time=  8.45000E+00 Dt=  5.00000E-02 [y] snes_conv_reason:   11
  newton =   1 [     186] linear =   129 [     23992] cuts =  0 [   0]
  --> max chng: dpmx=   3.4925E-10 dtmpmx=   9.2736E-11

== TH FLOW =====================================================================
 Step    182 Time=  8.50000E+00 Dt=  5.00000E-02 [y] snes_conv_reason:   11
  newton =   1 [     187] linear =   132 [     24124] cuts =  0 [   0]
  --> max chng: dpmx=   3.4925E-10 dtmpmx=   9.9709E-11

== TH FLOW =====================================================================
 Step    183 Time=  8.55000E+00 Dt=  5.00000E-02 [y] snes_conv_reason:   11
  newton =   1 [     188] linear =   138 [     24262] cuts =  0 [   0]
  --> max chng: dpmx=   2.3283E-10 dtmpmx=   9.8799E-11

== TH FLOW =====================================================================
 Step    184 Time=  8.60000E+00 Dt=  5.00000E-02 [y] snes_conv_reason:   11
  newton =   1 [     189] linear =    95 [     24357] cuts =  0 [   0]
  --> max chng: dpmx=   2.3283E-10 dtmpmx=   1.0559E-10

== TH FLOW =====================================================================
 Step    185 Time=  8.65000E+00 Dt=  5.00000E-02 [y] snes_conv_reason:   11
  newton =   1 [     190] linear =    95 [     24452] cuts =  0 [   0]
  --> max chng: dpmx=   2.3283E-10 dtmpmx=   9.8783E-11

== TH FLOW =====================================================================
 Step    186 Time=  8.70000E+00 Dt=  5.00000E-02 [y] snes_conv_reason:   11
  newton =   1 [     191] linear =   113 [     24565] cuts =  0 [   0]
  --> max chng: dpmx=   2.3283E-10 dtmpmx=   8.9880E-11

== TH FLOW =====================================================================
 Step    187 Time=  8.75000E+00 Dt=  5.00000E-02 [y] snes_conv_reason:   11
  newton =   1 [     192] linear =   135 [     24700] cuts =  0 [   0]
  --> max chng: dpmx=   2.3283E-10 dtmpmx=   8.5647E-11

== TH FLOW =====================================================================
 Step    188 Time=  8.80000E+00 Dt=  5.00000E-02 [y] snes_conv_reason:   11
  newton =   1 [     193] linear =   140 [     24840] cuts =  0 [   0]
  --> max chng: dpmx=   2.3283E-10 dtmpmx=   9.1708E-11

== TH FLOW =====================================================================
 Step    189 Time=  8.85000E+00 Dt=  5.00000E-02 [y] snes_conv_reason:   11
  newton =   1 [     194] linear =   120 [     24960] cuts =  0 [   0]
  --> max chng: dpmx=   2.3283E-10 dtmpmx=   9.2014E-11

== TH FLOW =====================================================================
 Step    190 Time=  8.90000E+00 Dt=  5.00000E-02 [y] snes_conv_reason:   11
  newton =   1 [     195] linear =   122 [     25082] cuts =  0 [   0]
  --> max chng: dpmx=   2.3283E-10 dtmpmx=   1.0863E-10

== TH FLOW =====================================================================
 Step    191 Time=  8.95000E+00 Dt=  5.00000E-02 [y] snes_conv_reason:   11
  newton =   1 [     196] linear =   102 [     25184] cuts =  0 [   0]
  --> max chng: dpmx=   2.3283E-10 dtmpmx=   9.6231E-11

== TH FLOW =====================================================================
 Step    192 Time=  9.00000E+00 Dt=  5.00000E-02 [y] snes_conv_reason:   11
  newton =   1 [     197] linear =   116 [     25300] cuts =  0 [   0]
  --> max chng: dpmx=   2.3283E-10 dtmpmx=   8.4745E-11

== TH FLOW =====================================================================
 Step    193 Time=  9.05000E+00 Dt=  5.00000E-02 [y] snes_conv_reason:   11
  newton =   1 [     198] linear =   116 [     25416] cuts =  0 [   0]
  --> max chng: dpmx=   2.3283E-10 dtmpmx=   9.9101E-11

== TH FLOW =====================================================================
 Step    194 Time=  9.10000E+00 Dt=  5.00000E-02 [y] snes_conv_reason:   11
  newton =   1 [     199] linear =   134 [     25550] cuts =  0 [   0]
  --> max chng: dpmx=   2.3283E-10 dtmpmx=   8.9583E-11

== TH FLOW =====================================================================
 Step    195 Time=  9.15000E+00 Dt=  5.00000E-02 [y] snes_conv_reason:   11
  newton =   1 [     200] linear =   109 [     25659] cuts =  0 [   0]
  --> max chng: dpmx=   2.3283E-10 dtmpmx=   9.5589E-11

== TH FLOW =====================================================================
 Step    196 Time=  9.20000E+00 Dt=  5.00000E-02 [y] snes_conv_reason:   11
  newton =   1 [     201] linear =   129 [     25788] cuts =  0 [   0]
  --> max chng: dpmx=   2.3283E-10 dtmpmx=   9.8291E-11

== TH FLOW =====================================================================
 Step    197 Time=  9.25000E+00 Dt=  5.00000E-02 [y] snes_conv_reason:   11
  newton =   1 [     202] linear =   131 [     25919] cuts =  0 [   0]
  --> max chng: dpmx=   2.3283E-10 dtmpmx=   9.5099E-11

== TH FLOW =====================================================================
 Step    198 Time=  9.30000E+00 Dt=  5.00000E-02 [y] snes_conv_reason:   11
  newton =   1 [     203] linear =    98 [     26017] cuts =  0 [   0]
  --> max chng: dpmx=   2.3283E-10 dtmpmx=   8.8777E-11

== TH FLOW =====================================================================
 Step    199 Time=  9.35000E+00 Dt=  5.00000E-02 [y] snes_conv_reason:   11
  newton =   1 [     204] linear =    86 [     26103] cuts =  0 [   0]
  --> max chng: dpmx=   2.3283E-10 dtmpmx=   8.8979E-11

== TH FLOW =====================================================================
 Step    200 Time=  9.40000E+00 Dt=  5.00000E-02 [y] snes_conv_reason:   11
  newton =   1 [     205] linear =   110 [     26213] cuts =  0 [   0]
  --> max chng: dpmx=   2.3283E-10 dtmpmx=   8.7587E-11

== TH FLOW =====================================================================
 Step    201 Time=  9.45000E+00 Dt=  5.00000E-02 [y] snes_conv_reason:   11
  newton =   1 [     206] linear =   124 [     26337] cuts =  0 [   0]
  --> max chng: dpmx=   2.3283E-10 dtmpmx=   9.2129E-11

== TH FLOW =====================================================================
 Step    202 Time=  9.50000E+00 Dt=  5.00000E-02 [y] snes_conv_reason:   11
  newton =   1 [     207] linear =    92 [     26429] cuts =  0 [   0]
  --> max chng: dpmx=   2.3283E-10 dtmpmx=   1.0652E-10

== TH FLOW =====================================================================
 Step    203 Time=  9.55000E+00 Dt=  5.00000E-02 [y] snes_conv_reason:   11
  newton =   1 [     208] linear =   118 [     26547] cuts =  0 [   0]
  --> max chng: dpmx=   2.3283E-10 dtmpmx=   1.1591E-10

== TH FLOW =====================================================================
 Step    204 Time=  9.60000E+00 Dt=  5.00000E-02 [y] snes_conv_reason:   11
  newton =   1 [     209] linear =   125 [     26672] cuts =  0 [   0]
  --> max chng: dpmx=   2.3283E-10 dtmpmx=   9.1232E-11

== TH FLOW =====================================================================
 Step    205 Time=  9.65000E+00 Dt=  5.00000E-02 [y] snes_conv_reason:   11
  newton =   1 [     210] linear =    99 [     26771] cuts =  0 [   0]
  --> max chng: dpmx=   2.3283E-10 dtmpmx=   1.0001E-10

== TH FLOW =====================================================================
 Step    206 Time=  9.70000E+00 Dt=  5.00000E-02 [y] snes_conv_reason:   11
  newton =   1 [     211] linear =    71 [     26842] cuts =  0 [   0]
  --> max chng: dpmx=   1.1642E-10 dtmpmx=   8.5429E-11

== TH FLOW =====================================================================
 Step    207 Time=  9.75000E+00 Dt=  5.00000E-02 [y] snes_conv_reason:   11
  newton =   1 [     212] linear =    95 [     26937] cuts =  0 [   0]
  --> max chng: dpmx=   2.3283E-10 dtmpmx=   8.4805E-11

== TH FLOW =====================================================================
 Step    208 Time=  9.80000E+00 Dt=  5.00000E-02 [y] snes_conv_reason:   11
  newton =   1 [     213] linear =    94 [     27031] cuts =  0 [   0]
  --> max chng: dpmx=   2.3283E-10 dtmpmx=   8.6491E-11

== TH FLOW =====================================================================
 Step    209 Time=  9.85000E+00 Dt=  5.00000E-02 [y] snes_conv_reason:   11
  newton =   1 [     214] linear =   117 [     27148] cuts =  0 [   0]
  --> max chng: dpmx=   2.3283E-10 dtmpmx=   8.6469E-11

== TH FLOW =====================================================================
 Step    210 Time=  9.90000E+00 Dt=  5.00000E-02 [y] snes_conv_reason:   11
  newton =   1 [     215] linear =   112 [     27260] cuts =  0 [   0]
  --> max chng: dpmx=   1.1642E-10 dtmpmx=   9.0287E-11

== TH FLOW =====================================================================
 Step    211 Time=  9.95000E+00 Dt=  5.00000E-02 [y] snes_conv_reason:   11
  newton =   1 [     216] linear =   113 [     27373] cuts =  0 [   0]
  --> max chng: dpmx=   2.3283E-10 dtmpmx=   9.8643E-11

== TH FLOW =====================================================================
 Step    212 Time=  1.00000E+01 Dt=  5.00000E-02 [y] snes_conv_reason:   11
  newton =   1 [     217] linear =   118 [     27491] cuts =  0 [   0]
  --> max chng: dpmx=   2.3283E-10 dtmpmx=   9.7005E-11

== TH FLOW =====================================================================
 Step    213 Time=  1.00500E+01 Dt=  5.00000E-02 [y] snes_conv_reason:   11
  newton =   1 [     218] linear =   126 [     27617] cuts =  0 [   0]
  --> max chng: dpmx=   1.1642E-10 dtmpmx=   1.0157E-10

== TH FLOW =====================================================================
 Step    214 Time=  1.01000E+01 Dt=  5.00000E-02 [y] snes_conv_reason:   11
  newton =   1 [     219] linear =   125 [     27742] cuts =  0 [   0]
  --> max chng: dpmx=   2.3283E-10 dtmpmx=   8.8558E-11

== TH FLOW =====================================================================
 Step    215 Time=  1.01500E+01 Dt=  5.00000E-02 [y] snes_conv_reason:   11
  newton =   1 [     220] linear =    74 [     27816] cuts =  0 [   0]
  --> max chng: dpmx=   2.3283E-10 dtmpmx=   9.6314E-11

== TH FLOW =====================================================================
 Step    216 Time=  1.02000E+01 Dt=  5.00000E-02 [y] snes_conv_reason:   11
  newton =   1 [     221] linear =    98 [     27914] cuts =  0 [   0]
  --> max chng: dpmx=   1.1642E-10 dtmpmx=   1.0187E-10

== TH FLOW =====================================================================
 Step    217 Time=  1.02500E+01 Dt=  5.00000E-02 [y] snes_conv_reason:   11
  newton =   1 [     222] linear =    63 [     27977] cuts =  0 [   0]
  --> max chng: dpmx=   1.1642E-10 dtmpmx=   9.8808E-11

== TH FLOW =====================================================================
 Step    218 Time=  1.03000E+01 Dt=  5.00000E-02 [y] snes_conv_reason:   11
  newton =   1 [     223] linear =   112 [     28089] cuts =  0 [   0]
  --> max chng: dpmx=   2.3283E-10 dtmpmx=   1.0202E-10

== TH FLOW =====================================================================
 Step    219 Time=  1.03500E+01 Dt=  5.00000E-02 [y] snes_conv_reason:   11
  newton =   1 [     224] linear =   106 [     28195] cuts =  0 [   0]
  --> max chng: dpmx=   2.3283E-10 dtmpmx=   9.1495E-11

== TH FLOW =====================================================================
 Step    220 Time=  1.04000E+01 Dt=  5.00000E-02 [y] snes_conv_reason:   11
  newton =   1 [     225] linear =    83 [     28278] cuts =  0 [   0]
  --> max chng: dpmx=   1.1642E-10 dtmpmx=   8.9191E-11

== TH FLOW =====================================================================
 Step    221 Time=  1.04500E+01 Dt=  5.00000E-02 [y] snes_conv_reason:   11
  newton =   1 [     226] linear =    73 [     28351] cuts =  0 [   0]
  --> max chng: dpmx=   2.3283E-10 dtmpmx=   8.8090E-11

== TH FLOW =====================================================================
 Step    222 Time=  1.05000E+01 Dt=  5.00000E-02 [y] snes_conv_reason:   11
  newton =   1 [     227] linear =    84 [     28435] cuts =  0 [   0]
  --> max chng: dpmx=   2.3283E-10 dtmpmx=   8.8848E-11

== TH FLOW =====================================================================
 Step    223 Time=  1.05500E+01 Dt=  5.00000E-02 [y] snes_conv_reason:   11
  newton =   1 [     228] linear =    60 [     28495] cuts =  0 [   0]
  --> max chng: dpmx=   2.3283E-10 dtmpmx=   9.3843E-11

== TH FLOW =====================================================================
 Step    224 Time=  1.06000E+01 Dt=  5.00000E-02 [y] snes_conv_reason:   11
  newton =   1 [     229] linear =   100 [     28595] cuts =  0 [   0]
  --> max chng: dpmx=   2.3283E-10 dtmpmx=   8.8592E-11

== TH FLOW =====================================================================
 Step    225 Time=  1.06500E+01 Dt=  5.00000E-02 [y] snes_conv_reason:   11
  newton =   1 [     230] linear =    65 [     28660] cuts =  0 [   0]
  --> max chng: dpmx=   1.1642E-10 dtmpmx=   8.9562E-11

== TH FLOW =====================================================================
 Step    226 Time=  1.07000E+01 Dt=  5.00000E-02 [y] snes_conv_reason:   11
  newton =   1 [     231] linear =   117 [     28777] cuts =  0 [   0]
  --> max chng: dpmx=   1.1642E-10 dtmpmx=   9.3966E-11

== TH FLOW =====================================================================
 Step    227 Time=  1.07500E+01 Dt=  5.00000E-02 [y] snes_conv_reason:   11
  newton =   1 [     232] linear =    94 [     28871] cuts =  0 [   0]
  --> max chng: dpmx=   2.3283E-10 dtmpmx=   9.1896E-11

== TH FLOW =====================================================================
 Step    228 Time=  1.08000E+01 Dt=  5.00000E-02 [y] snes_conv_reason:   11
  newton =   1 [     233] linear =   112 [     28983] cuts =  0 [   0]
  --> max chng: dpmx=   2.3283E-10 dtmpmx=   9.2694E-11

== TH FLOW =====================================================================
 Step    229 Time=  1.08500E+01 Dt=  5.00000E-02 [y] snes_conv_reason:   11
  newton =   1 [     234] linear =    68 [     29051] cuts =  0 [   0]
  --> max chng: dpmx=   1.1642E-10 dtmpmx=   1.0006E-10

== TH FLOW =====================================================================
 Step    230 Time=  1.09000E+01 Dt=  5.00000E-02 [y] snes_conv_reason:   11
  newton =   1 [     235] linear =    92 [     29143] cuts =  0 [   0]
  --> max chng: dpmx=   2.3283E-10 dtmpmx=   8.5576E-11

== TH FLOW =====================================================================
 Step    231 Time=  1.09500E+01 Dt=  5.00000E-02 [y] snes_conv_reason:   11
  newton =   1 [     236] linear =   100 [     29243] cuts =  0 [   0]
  --> max chng: dpmx=   2.3283E-10 dtmpmx=   8.5494E-11

== TH FLOW =====================================================================
 Step    232 Time=  1.10000E+01 Dt=  5.00000E-02 [y] snes_conv_reason:   11
  newton =   1 [     237] linear =   135 [     29378] cuts =  0 [   0]
  --> max chng: dpmx=   2.3283E-10 dtmpmx=   1.1274E-10

== TH FLOW =====================================================================
 Step    233 Time=  1.10500E+01 Dt=  5.00000E-02 [y] snes_conv_reason:   11
  newton =   1 [     238] linear =   109 [     29487] cuts =  0 [   0]
  --> max chng: dpmx=   2.3283E-10 dtmpmx=   8.5066E-11

== TH FLOW =====================================================================
 Step    234 Time=  1.11000E+01 Dt=  5.00000E-02 [y] snes_conv_reason:   11
  newton =   1 [     239] linear =   105 [     29592] cuts =  0 [   0]
  --> max chng: dpmx=   2.3283E-10 dtmpmx=   9.7105E-11

== TH FLOW =====================================================================
 Step    235 Time=  1.11500E+01 Dt=  5.00000E-02 [y] snes_conv_reason:   11
  newton =   1 [     240] linear =    94 [     29686] cuts =  0 [   0]
  --> max chng: dpmx=   2.3283E-10 dtmpmx=   1.0600E-10

== TH FLOW =====================================================================
 Step    236 Time=  1.12000E+01 Dt=  5.00000E-02 [y] snes_conv_reason:   11
  newton =   1 [     241] linear =    93 [     29779] cuts =  0 [   0]
  --> max chng: dpmx=   1.1642E-10 dtmpmx=   9.5079E-11

== TH FLOW =====================================================================
 Step    237 Time=  1.12500E+01 Dt=  5.00000E-02 [y] snes_conv_reason:   11
  newton =   1 [     242] linear =   110 [     29889] cuts =  0 [   0]
  --> max chng: dpmx=   2.3283E-10 dtmpmx=   8.9051E-11

== TH FLOW =====================================================================
 Step    238 Time=  1.13000E+01 Dt=  5.00000E-02 [y] snes_conv_reason:   11
  newton =   1 [     243] linear =    76 [     29965] cuts =  0 [   0]
  --> max chng: dpmx=   2.3283E-10 dtmpmx=   9.1902E-11

== TH FLOW =====================================================================
 Step    239 Time=  1.13500E+01 Dt=  5.00000E-02 [y] snes_conv_reason:   11
  newton =   1 [     244] linear =    81 [     30046] cuts =  0 [   0]
  --> max chng: dpmx=   2.3283E-10 dtmpmx=   8.6898E-11

== TH FLOW =====================================================================
 Step    240 Time=  1.14000E+01 Dt=  5.00000E-02 [y] snes_conv_reason:   11
  newton =   1 [     245] linear =    87 [     30133] cuts =  0 [   0]
  --> max chng: dpmx=   2.3283E-10 dtmpmx=   1.0974E-10

== TH FLOW =====================================================================
 Step    241 Time=  1.14500E+01 Dt=  5.00000E-02 [y] snes_conv_reason:   11
  newton =   1 [     246] linear =   105 [     30238] cuts =  0 [   0]
  --> max chng: dpmx=   2.3283E-10 dtmpmx=   9.0793E-11

== TH FLOW =====================================================================
 Step    242 Time=  1.15000E+01 Dt=  5.00000E-02 [y] snes_conv_reason:   11
  newton =   1 [     247] linear =    90 [     30328] cuts =  0 [   0]
  --> max chng: dpmx=   2.3283E-10 dtmpmx=   1.0464E-10

== TH FLOW =====================================================================
 Step    243 Time=  1.15500E+01 Dt=  5.00000E-02 [y] snes_conv_reason:   11
  newton =   1 [     248] linear =   115 [     30443] cuts =  0 [   0]
  --> max chng: dpmx=   2.3283E-10 dtmpmx=   1.0652E-10

== TH FLOW =====================================================================
 Step    244 Time=  1.16000E+01 Dt=  5.00000E-02 [y] snes_conv_reason:   11
  newton =   1 [     249] linear =   103 [     30546] cuts =  0 [   0]
  --> max chng: dpmx=   1.1642E-10 dtmpmx=   8.8010E-11

== TH FLOW =====================================================================
 Step    245 Time=  1.16500E+01 Dt=  5.00000E-02 [y] snes_conv_reason:   11
  newton =   1 [     250] linear =   109 [     30655] cuts =  0 [   0]
  --> max chng: dpmx=   2.3283E-10 dtmpmx=   9.4424E-11

== TH FLOW =====================================================================
 Step    246 Time=  1.17000E+01 Dt=  5.00000E-02 [y] snes_conv_reason:   11
  newton =   1 [     251] linear =    97 [     30752] cuts =  0 [   0]
  --> max chng: dpmx=   2.3283E-10 dtmpmx=   9.4579E-11

== TH FLOW =====================================================================
 Step    247 Time=  1.17500E+01 Dt=  5.00000E-02 [y] snes_conv_reason:   11
  newton =   1 [     252] linear =    99 [     30851] cuts =  0 [   0]
  --> max chng: dpmx=   2.3283E-10 dtmpmx=   8.5560E-11

== TH FLOW =====================================================================
 Step    248 Time=  1.18000E+01 Dt=  5.00000E-02 [y] snes_conv_reason:   11
  newton =   1 [     253] linear =   131 [     30982] cuts =  0 [   0]
  --> max chng: dpmx=   1.1642E-10 dtmpmx=   9.0143E-11

== TH FLOW =====================================================================
 Step    249 Time=  1.18500E+01 Dt=  5.00000E-02 [y] snes_conv_reason:   11
  newton =   1 [     254] linear =   134 [     31116] cuts =  0 [   0]
  --> max chng: dpmx=   2.3283E-10 dtmpmx=   8.3773E-11

== TH FLOW =====================================================================
 Step    250 Time=  1.19000E+01 Dt=  5.00000E-02 [y] snes_conv_reason:   11
  newton =   1 [     255] linear =   122 [     31238] cuts =  0 [   0]
  --> max chng: dpmx=   2.3283E-10 dtmpmx=   9.6506E-11

== TH FLOW =====================================================================
 Step    251 Time=  1.19500E+01 Dt=  5.00000E-02 [y] snes_conv_reason:   11
  newton =   1 [     256] linear =   117 [     31355] cuts =  0 [   0]
  --> max chng: dpmx=   2.3283E-10 dtmpmx=   9.8066E-11

== TH FLOW =====================================================================
 Step    252 Time=  1.20000E+01 Dt=  5.00000E-02 [y] snes_conv_reason:   11
  newton =   1 [     257] linear =    92 [     31447] cuts =  0 [   0]
  --> max chng: dpmx=   1.1642E-10 dtmpmx=   8.8386E-11

== TH FLOW =====================================================================
 Step    253 Time=  1.20500E+01 Dt=  5.00000E-02 [y] snes_conv_reason:   11
  newton =   1 [     258] linear =   111 [     31558] cuts =  0 [   0]
  --> max chng: dpmx=   2.3283E-10 dtmpmx=   1.0416E-10

== TH FLOW =====================================================================
 Step    254 Time=  1.21000E+01 Dt=  5.00000E-02 [y] snes_conv_reason:   11
  newton =   1 [     259] linear =   113 [     31671] cuts =  0 [   0]
  --> max chng: dpmx=   1.1642E-10 dtmpmx=   9.1150E-11

== TH FLOW =====================================================================
 Step    255 Time=  1.21500E+01 Dt=  5.00000E-02 [y] snes_conv_reason:   11
  newton =   1 [     260] linear =   103 [     31774] cuts =  0 [   0]
  --> max chng: dpmx=   2.3283E-10 dtmpmx=   9.5124E-11

== TH FLOW =====================================================================
 Step    256 Time=  1.22000E+01 Dt=  5.00000E-02 [y] snes_conv_reason:   11
  newton =   1 [     261] linear =   108 [     31882] cuts =  0 [   0]
  --> max chng: dpmx=   2.3283E-10 dtmpmx=   9.0553E-11

== TH FLOW =====================================================================
 Step    257 Time=  1.22500E+01 Dt=  5.00000E-02 [y] snes_conv_reason:   11
  newton =   1 [     262] linear =   109 [     31991] cuts =  0 [   0]
  --> max chng: dpmx=   1.1642E-10 dtmpmx=   9.5172E-11

[...]
 Step    493 Time=  2.40500E+01 Dt=  5.00000E-02 [y] snes_conv_reason:   11
  newton =   1 [     498] linear =   113 [     56416] cuts =  0 [   0]
  --> max chng: dpmx=   2.3283E-10 dtmpmx=   9.2319E-11

== TH FLOW =====================================================================
 Step    494 Time=  2.41000E+01 Dt=  5.00000E-02 [y] snes_conv_reason:   11
  newton =   1 [     499] linear =   117 [     56533] cuts =  0 [   0]
  --> max chng: dpmx=   2.3283E-10 dtmpmx=   8.7542E-11

== TH FLOW =====================================================================
 Step    495 Time=  2.41500E+01 Dt=  5.00000E-02 [y] snes_conv_reason:   11
  newton =   1 [     500] linear =   108 [     56641] cuts =  0 [   0]
  --> max chng: dpmx=   2.3283E-10 dtmpmx=   9.3914E-11

== TH FLOW =====================================================================
 Step    496 Time=  2.42000E+01 Dt=  5.00000E-02 [y] snes_conv_reason:   11
  newton =   1 [     501] linear =    88 [     56729] cuts =  0 [   0]
  --> max chng: dpmx=   2.3283E-10 dtmpmx=   9.4753E-11

== TH FLOW =====================================================================
 Step    497 Time=  2.42500E+01 Dt=  5.00000E-02 [y] snes_conv_reason:   11
  newton =   1 [     502] linear =    54 [     56783] cuts =  0 [   0]
  --> max chng: dpmx=   2.3283E-10 dtmpmx=   9.3070E-11

== TH FLOW =====================================================================
 Step    498 Time=  2.43000E+01 Dt=  5.00000E-02 [y] snes_conv_reason:   11
  newton =   1 [     503] linear =    64 [     56847] cuts =  0 [   0]
  --> max chng: dpmx=   1.1642E-10 dtmpmx=   9.9408E-11

== TH FLOW =====================================================================
 Step    499 Time=  2.43500E+01 Dt=  5.00000E-02 [y] snes_conv_reason:   11
  newton =   1 [     504] linear =    80 [     56927] cuts =  0 [   0]
  --> max chng: dpmx=   2.3283E-10 dtmpmx=   8.2741E-11

== TH FLOW =====================================================================
 Step    500 Time=  2.44000E+01 Dt=  5.00000E-02 [y] snes_conv_reason:   11
  newton =   1 [     505] linear =    64 [     56991] cuts =  0 [   0]
  --> max chng: dpmx=   2.3283E-10 dtmpmx=   9.4712E-11

== TH FLOW =====================================================================
 Step    501 Time=  2.44500E+01 Dt=  5.00000E-02 [y] snes_conv_reason:   11
  newton =   1 [     506] linear =    88 [     57079] cuts =  0 [   0]
  --> max chng: dpmx=   2.3283E-10 dtmpmx=   9.6382E-11

== TH FLOW =====================================================================
 Step    502 Time=  2.45000E+01 Dt=  5.00000E-02 [y] snes_conv_reason:   11
  newton =   1 [     507] linear =    85 [     57164] cuts =  0 [   0]
  --> max chng: dpmx=   2.3283E-10 dtmpmx=   1.0666E-10

== TH FLOW =====================================================================
 Step    503 Time=  2.45500E+01 Dt=  5.00000E-02 [y] snes_conv_reason:   11
  newton =   1 [     508] linear =   101 [     57265] cuts =  0 [   0]
  --> max chng: dpmx=   2.3283E-10 dtmpmx=   9.7351E-11

== TH FLOW =====================================================================
 Step    504 Time=  2.46000E+01 Dt=  5.00000E-02 [y] snes_conv_reason:   11
  newton =   1 [     509] linear =    93 [     57358] cuts =  0 [   0]
  --> max chng: dpmx=   1.1642E-10 dtmpmx=   8.9017E-11

== TH FLOW =====================================================================
 Step    505 Time=  2.46500E+01 Dt=  5.00000E-02 [y] snes_conv_reason:   11
  newton =   1 [     510] linear =   134 [     57492] cuts =  0 [   0]
  --> max chng: dpmx=   2.3283E-10 dtmpmx=   8.9535E-11

== TH FLOW =====================================================================
 Step    506 Time=  2.47000E+01 Dt=  5.00000E-02 [y] snes_conv_reason:   11
  newton =   1 [     511] linear =    82 [     57574] cuts =  0 [   0]
  --> max chng: dpmx=   1.1642E-10 dtmpmx=   9.6339E-11

== TH FLOW =====================================================================
 Step    507 Time=  2.47500E+01 Dt=  5.00000E-02 [y] snes_conv_reason:   11
  newton =   1 [     512] linear =   105 [     57679] cuts =  0 [   0]
  --> max chng: dpmx=   2.3283E-10 dtmpmx=   1.0633E-10

== TH FLOW =====================================================================
 Step    508 Time=  2.48000E+01 Dt=  5.00000E-02 [y] snes_conv_reason:   11
  newton =   1 [     513] linear =   118 [     57797] cuts =  0 [   0]
  --> max chng: dpmx=   2.3283E-10 dtmpmx=   9.8380E-11

== TH FLOW =====================================================================
 Step    509 Time=  2.48500E+01 Dt=  5.00000E-02 [y] snes_conv_reason:   11
  newton =   1 [     514] linear =   124 [     57921] cuts =  0 [   0]
  --> max chng: dpmx=   2.3283E-10 dtmpmx=   1.0978E-10

== TH FLOW =====================================================================
 Step    510 Time=  2.49000E+01 Dt=  5.00000E-02 [y] snes_conv_reason:   11
  newton =   1 [     515] linear =   129 [     58050] cuts =  0 [   0]
  --> max chng: dpmx=   2.3283E-10 dtmpmx=   9.1536E-11

== TH FLOW =====================================================================
 Step    511 Time=  2.49500E+01 Dt=  5.00000E-02 [y] snes_conv_reason:   11
  newton =   1 [     516] linear =    95 [     58145] cuts =  0 [   0]
  --> max chng: dpmx=   2.3283E-10 dtmpmx=   9.0349E-11

== TH FLOW =====================================================================
 Step    512 Time=  2.50000E+01 Dt=  5.00000E-02 [y] snes_conv_reason:   11
  newton =   1 [     517] linear =    77 [     58222] cuts =  0 [   0]
  --> max chng: dpmx=   2.3283E-10 dtmpmx=   8.4187E-11

== TH FLOW =====================================================================
 Step    513 Time=  2.50500E+01 Dt=  5.00000E-02 [y] snes_conv_reason:   11
  newton =   1 [     518] linear =   129 [     58351] cuts =  0 [   0]
  --> max chng: dpmx=   2.3283E-10 dtmpmx=   9.2657E-11

== TH FLOW =====================================================================
 Step    514 Time=  2.51000E+01 Dt=  5.00000E-02 [y] snes_conv_reason:   11
  newton =   1 [     519] linear =    77 [     58428] cuts =  0 [   0]
  --> max chng: dpmx=   2.3283E-10 dtmpmx=   1.0153E-10

== TH FLOW =====================================================================
 Step    515 Time=  2.51500E+01 Dt=  5.00000E-02 [y] snes_conv_reason:   11
  newton =   1 [     520] linear =    97 [     58525] cuts =  0 [   0]
  --> max chng: dpmx=   2.3283E-10 dtmpmx=   8.5864E-11

== TH FLOW =====================================================================
 Step    516 Time=  2.52000E+01 Dt=  5.00000E-02 [y] snes_conv_reason:   11
  newton =   1 [     521] linear =   106 [     58631] cuts =  0 [   0]
  --> max chng: dpmx=   1.1642E-10 dtmpmx=   9.1077E-11

== TH FLOW =====================================================================
 Step    517 Time=  2.52500E+01 Dt=  5.00000E-02 [y] snes_conv_reason:   11
  newton =   1 [     522] linear =   135 [     58766] cuts =  0 [   0]
  --> max chng: dpmx=   1.1642E-10 dtmpmx=   9.2108E-11

== TH FLOW =====================================================================
 Step    518 Time=  2.53000E+01 Dt=  5.00000E-02 [y] snes_conv_reason:   11
  newton =   1 [     523] linear =   116 [     58882] cuts =  0 [   0]
  --> max chng: dpmx=   2.3283E-10 dtmpmx=   8.8319E-11

== TH FLOW =====================================================================
 Step    519 Time=  2.53500E+01 Dt=  5.00000E-02 [y] snes_conv_reason:   11
  newton =   1 [     524] linear =   106 [     58988] cuts =  0 [   0]
  --> max chng: dpmx=   1.1642E-10 dtmpmx=   9.4831E-11

== TH FLOW =====================================================================
 Step    520 Time=  2.54000E+01 Dt=  5.00000E-02 [y] snes_conv_reason:   11
  newton =   1 [     525] linear =   137 [     59125] cuts =  0 [   0]
  --> max chng: dpmx=   2.3283E-10 dtmpmx=   9.2232E-11

== TH FLOW =====================================================================
 Step    521 Time=  2.54500E+01 Dt=  5.00000E-02 [y] snes_conv_reason:   11
  newton =   1 [     526] linear =   117 [     59242] cuts =  0 [   0]
  --> max chng: dpmx=   2.3283E-10 dtmpmx=   8.7903E-11

== TH FLOW =====================================================================
 Step    522 Time=  2.55000E+01 Dt=  5.00000E-02 [y] snes_conv_reason:   11
  newton =   1 [     527] linear =   117 [     59359] cuts =  0 [   0]
  --> max chng: dpmx=   2.3283E-10 dtmpmx=   8.8075E-11

== TH FLOW =====================================================================
 Step    523 Time=  2.55500E+01 Dt=  5.00000E-02 [y] snes_conv_reason:   11
  newton =   1 [     528] linear =   104 [     59463] cuts =  0 [   0]
  --> max chng: dpmx=   1.1642E-10 dtmpmx=   8.8798E-11

== TH FLOW =====================================================================
 Step    524 Time=  2.56000E+01 Dt=  5.00000E-02 [y] snes_conv_reason:   11
  newton =   1 [     529] linear =   123 [     59586] cuts =  0 [   0]
  --> max chng: dpmx=   2.3283E-10 dtmpmx=   8.8345E-11

== TH FLOW =====================================================================
 Step    525 Time=  2.56500E+01 Dt=  5.00000E-02 [y] snes_conv_reason:   11
  newton =   1 [     530] linear =   105 [     59691] cuts =  0 [   0]
  --> max chng: dpmx=   1.1642E-10 dtmpmx=   1.0172E-10

== TH FLOW =====================================================================
 Step    526 Time=  2.57000E+01 Dt=  5.00000E-02 [y] snes_conv_reason:   11
  newton =   1 [     531] linear =   100 [     59791] cuts =  0 [   0]
  --> max chng: dpmx=   2.3283E-10 dtmpmx=   9.9979E-11

== TH FLOW =====================================================================
 Step    527 Time=  2.57500E+01 Dt=  5.00000E-02 [y] snes_conv_reason:   11
  newton =   1 [     532] linear =   126 [     59917] cuts =  0 [   0]
  --> max chng: dpmx=   2.3283E-10 dtmpmx=   1.0040E-10

== TH FLOW =====================================================================
 Step    528 Time=  2.58000E+01 Dt=  5.00000E-02 [y] snes_conv_reason:   11
  newton =   1 [     533] linear =    99 [     60016] cuts =  0 [   0]
  --> max chng: dpmx=   2.3283E-10 dtmpmx=   9.9179E-11

== TH FLOW =====================================================================
 Step    529 Time=  2.58500E+01 Dt=  5.00000E-02 [y] snes_conv_reason:   11
  newton =   1 [     534] linear =    77 [     60093] cuts =  0 [   0]
  --> max chng: dpmx=   2.3283E-10 dtmpmx=   8.5254E-11

== TH FLOW =====================================================================
 Step    530 Time=  2.59000E+01 Dt=  5.00000E-02 [y] snes_conv_reason:   11
  newton =   1 [     535] linear =   116 [     60209] cuts =  0 [   0]
  --> max chng: dpmx=   2.3283E-10 dtmpmx=   1.0546E-10

== TH FLOW =====================================================================
 Step    531 Time=  2.59500E+01 Dt=  5.00000E-02 [y] snes_conv_reason:   11
  newton =   1 [     536] linear =   129 [     60338] cuts =  0 [   0]
  --> max chng: dpmx=   2.3283E-10 dtmpmx=   9.2196E-11

== TH FLOW =====================================================================
 Step    532 Time=  2.60000E+01 Dt=  5.00000E-02 [y] snes_conv_reason:   11
  newton =   1 [     537] linear =   101 [     60439] cuts =  0 [   0]
  --> max chng: dpmx=   1.1642E-10 dtmpmx=   9.4385E-11

== TH FLOW =====================================================================
 Step    533 Time=  2.60500E+01 Dt=  5.00000E-02 [y] snes_conv_reason:   11
  newton =   1 [     538] linear =   125 [     60564] cuts =  0 [   0]
  --> max chng: dpmx=   1.1642E-10 dtmpmx=   8.6100E-11

== TH FLOW =====================================================================
 Step    534 Time=  2.61000E+01 Dt=  5.00000E-02 [y] snes_conv_reason:   11
  newton =   1 [     539] linear =   124 [     60688] cuts =  0 [   0]
  --> max chng: dpmx=   2.3283E-10 dtmpmx=   8.8882E-11

== TH FLOW =====================================================================
 Step    535 Time=  2.61500E+01 Dt=  5.00000E-02 [y] snes_conv_reason:   11
  newton =   1 [     540] linear =   111 [     60799] cuts =  0 [   0]
  --> max chng: dpmx=   2.3283E-10 dtmpmx=   1.0361E-10

== TH FLOW =====================================================================
 Step    536 Time=  2.62000E+01 Dt=  5.00000E-02 [y] snes_conv_reason:   11
  newton =   1 [     541] linear =   109 [     60908] cuts =  0 [   0]
  --> max chng: dpmx=   2.3283E-10 dtmpmx=   1.0425E-10

== TH FLOW =====================================================================
 Step    537 Time=  2.62500E+01 Dt=  5.00000E-02 [y] snes_conv_reason:   11
  newton =   1 [     542] linear =   100 [     61008] cuts =  0 [   0]
  --> max chng: dpmx=   1.1642E-10 dtmpmx=   1.0359E-10

== TH FLOW =====================================================================
 Step    538 Time=  2.63000E+01 Dt=  5.00000E-02 [y] snes_conv_reason:   11
  newton =   1 [     543] linear =    67 [     61075] cuts =  0 [   0]
  --> max chng: dpmx=   1.1642E-10 dtmpmx=   9.1070E-11

== TH FLOW =====================================================================
 Step    539 Time=  2.63500E+01 Dt=  5.00000E-02 [y] snes_conv_reason:   11
  newton =   1 [     544] linear =    98 [     61173] cuts =  0 [   0]
  --> max chng: dpmx=   2.3283E-10 dtmpmx=   9.6794E-11

== TH FLOW =====================================================================
 Step    540 Time=  2.64000E+01 Dt=  5.00000E-02 [y] snes_conv_reason:   11
  newton =   1 [     545] linear =    95 [     61268] cuts =  0 [   0]
  --> max chng: dpmx=   2.3283E-10 dtmpmx=   9.6179E-11

== TH FLOW =====================================================================
 Step    541 Time=  2.64500E+01 Dt=  5.00000E-02 [y] snes_conv_reason:   11
  newton =   1 [     546] linear =   126 [     61394] cuts =  0 [   0]
  --> max chng: dpmx=   2.3283E-10 dtmpmx=   1.0010E-10

== TH FLOW =====================================================================
 Step    542 Time=  2.65000E+01 Dt=  5.00000E-02 [y] snes_conv_reason:   11
  newton =   1 [     547] linear =   108 [     61502] cuts =  0 [   0]
  --> max chng: dpmx=   2.3283E-10 dtmpmx=   8.9305E-11

== TH FLOW =====================================================================
 Step    543 Time=  2.65500E+01 Dt=  5.00000E-02 [y] snes_conv_reason:   11
  newton =   1 [     548] linear =   113 [     61615] cuts =  0 [   0]
  --> max chng: dpmx=   2.3283E-10 dtmpmx=   8.7436E-11

== TH FLOW =====================================================================
 Step    544 Time=  2.66000E+01 Dt=  5.00000E-02 [y] snes_conv_reason:   11
  newton =   1 [     549] linear =   114 [     61729] cuts =  0 [   0]
  --> max chng: dpmx=   2.3283E-10 dtmpmx=   9.3902E-11

== TH FLOW =====================================================================
 Step    545 Time=  2.66500E+01 Dt=  5.00000E-02 [y] snes_conv_reason:   11
  newton =   1 [     550] linear =   110 [     61839] cuts =  0 [   0]
  --> max chng: dpmx=   2.3283E-10 dtmpmx=   9.1184E-11

== TH FLOW =====================================================================
 Step    546 Time=  2.67000E+01 Dt=  5.00000E-02 [y] snes_conv_reason:   11
  newton =   1 [     551] linear =    89 [     61928] cuts =  0 [   0]
  --> max chng: dpmx=   2.3283E-10 dtmpmx=   9.5024E-11

== TH FLOW =====================================================================
 Step    547 Time=  2.67500E+01 Dt=  5.00000E-02 [y] snes_conv_reason:   11
  newton =   1 [     552] linear =    77 [     62005] cuts =  0 [   0]
  --> max chng: dpmx=   2.3283E-10 dtmpmx=   8.9242E-11

== TH FLOW =====================================================================
 Step    548 Time=  2.68000E+01 Dt=  5.00000E-02 [y] snes_conv_reason:   11
  newton =   1 [     553] linear =   114 [     62119] cuts =  0 [   0]
  --> max chng: dpmx=   2.3283E-10 dtmpmx=   8.6738E-11

== TH FLOW =====================================================================
 Step    549 Time=  2.68500E+01 Dt=  5.00000E-02 [y] snes_conv_reason:   11
  newton =   1 [     554] linear =   100 [     62219] cuts =  0 [   0]
  --> max chng: dpmx=   1.1642E-10 dtmpmx=   8.9047E-11

== TH FLOW =====================================================================
 Step    550 Time=  2.69000E+01 Dt=  5.00000E-02 [y] snes_conv_reason:   11
  newton =   1 [     555] linear =   132 [     62351] cuts =  0 [   0]
  --> max chng: dpmx=   2.3283E-10 dtmpmx=   1.1247E-10

== TH FLOW =====================================================================
 Step    551 Time=  2.69500E+01 Dt=  5.00000E-02 [y] snes_conv_reason:   11
  newton =   1 [     556] linear =   105 [     62456] cuts =  0 [   0]
  --> max chng: dpmx=   2.3283E-10 dtmpmx=   9.2916E-11

== TH FLOW =====================================================================
 Step    552 Time=  2.70000E+01 Dt=  5.00000E-02 [y] snes_conv_reason:   11
  newton =   1 [     557] linear =   123 [     62579] cuts =  0 [   0]
  --> max chng: dpmx=   2.3283E-10 dtmpmx=   9.2585E-11

== TH FLOW =====================================================================
 Step    553 Time=  2.70500E+01 Dt=  5.00000E-02 [y] snes_conv_reason:   11
  newton =   1 [     558] linear =   123 [     62702] cuts =  0 [   0]
  --> max chng: dpmx=   2.3283E-10 dtmpmx=   9.3697E-11

== TH FLOW =====================================================================
 Step    554 Time=  2.71000E+01 Dt=  5.00000E-02 [y] snes_conv_reason:   11
  newton =   1 [     559] linear =    94 [     62796] cuts =  0 [   0]
  --> max chng: dpmx=   1.1642E-10 dtmpmx=   1.0078E-10

== TH FLOW =====================================================================
 Step    555 Time=  2.71500E+01 Dt=  5.00000E-02 [y] snes_conv_reason:   11
  newton =   1 [     560] linear =   114 [     62910] cuts =  0 [   0]
  --> max chng: dpmx=   1.1642E-10 dtmpmx=   8.9077E-11

== TH FLOW =====================================================================
 Step    556 Time=  2.72000E+01 Dt=  5.00000E-02 [y] snes_conv_reason:   11
  newton =   1 [     561] linear =    73 [     62983] cuts =  0 [   0]
  --> max chng: dpmx=   1.1642E-10 dtmpmx=   9.1084E-11

== TH FLOW =====================================================================
 Step    557 Time=  2.72500E+01 Dt=  5.00000E-02 [y] snes_conv_reason:   11
  newton =   1 [     562] linear =   114 [     63097] cuts =  0 [   0]
  --> max chng: dpmx=   2.3283E-10 dtmpmx=   9.6376E-11

== TH FLOW =====================================================================
 Step    558 Time=  2.73000E+01 Dt=  5.00000E-02 [y] snes_conv_reason:   11
  newton =   1 [     563] linear =   109 [     63206] cuts =  0 [   0]
  --> max chng: dpmx=   2.3283E-10 dtmpmx=   9.5795E-11

== TH FLOW =====================================================================
 Step    559 Time=  2.73500E+01 Dt=  5.00000E-02 [y] snes_conv_reason:   11
  newton =   1 [     564] linear =    84 [     63290] cuts =  0 [   0]
  --> max chng: dpmx=   2.3283E-10 dtmpmx=   1.0591E-10

== TH FLOW =====================================================================
 Step    560 Time=  2.74000E+01 Dt=  5.00000E-02 [y] snes_conv_reason:   11
  newton =   1 [     565] linear =    59 [     63349] cuts =  0 [   0]
  --> max chng: dpmx=   1.1642E-10 dtmpmx=   9.8836E-11

== TH FLOW =====================================================================
 Step    561 Time=  2.74500E+01 Dt=  5.00000E-02 [y] snes_conv_reason:   11
  newton =   1 [     566] linear =    96 [     63445] cuts =  0 [   0]
  --> max chng: dpmx=   2.3283E-10 dtmpmx=   8.4004E-11

== TH FLOW =====================================================================
 Step    562 Time=  2.75000E+01 Dt=  5.00000E-02 [y] snes_conv_reason:   11
  newton =   1 [     567] linear =   119 [     63564] cuts =  0 [   0]
  --> max chng: dpmx=   2.3283E-10 dtmpmx=   9.2928E-11

 Wall Clock Time:  1.6106E+02 [sec]   2.6843E+00 [min]   4.4739E-02 [hr]
