
===================
  PFLOTRAN v3.0.1
===================

 Extent of Gridded Domain
  X: 2.5000000000000000 - 97.500000000000000
  Y: 2.5000000000000000 - 1277.5000000000000
  Z: 2.5000000000000000 - 2.5000000000000000


=+=+=+=+=+=+=+=+=+=+=+=+=+=+=+=+=+=+=+=+=+=+=+=+=+=+=+=+=+=+=+=+=+=+=+=+=+=+=+=+

  Initial Condition

--------------------------------------------------------------------------------
          Flow Condition:   initial
                  Region:   all
--------------------------------------------------------------------------------

  Flow Condition: initial
    Synchronize time with update: no
    Time units: yr
    Length units: m
      Datum:
        Dataset: Unnamed Ascii Dataset
          Type: dataset_ascii_type
          Transient: no
          Array Rank:  3

    Sub Condition: pressure
      Type: hydrostatic
      Gradient:
        Dataset: Unnamed Ascii Dataset
          Type: dataset_ascii_type
          Transient: no
          Array Rank:  3
      Data:
        Dataset: Unnamed Ascii Dataset
          Type: dataset_ascii_type
          Transient: no
          Array Rank:  1

    Sub Condition: temperature
      Type: dirichlet
      Gradient:
      Data:
        Dataset: Unnamed Ascii Dataset
          Type: dataset_ascii_type
          Transient: no
          Array Rank:  1

--------------------------------------------------------------------------------

=+=+=+=+=+=+=+=+=+=+=+=+=+=+=+=+=+=+=+=+=+=+=+=+=+=+=+=+=+=+=+=+=+=+=+=+=+=+=+=+

  Boundary Condition

--------------------------------------------------------------------------------
          Flow Condition:   initial
                  Region:   north
--------------------------------------------------------------------------------

  Flow Condition: initial
    Synchronize time with update: no
    Time units: yr
    Length units: m
      Datum:
        Dataset: Unnamed Ascii Dataset
          Type: dataset_ascii_type
          Transient: no
          Array Rank:  3

    Sub Condition: pressure
      Type: hydrostatic
      Gradient:
        Dataset: Unnamed Ascii Dataset
          Type: dataset_ascii_type
          Transient: no
          Array Rank:  3
      Data:
        Dataset: Unnamed Ascii Dataset
          Type: dataset_ascii_type
          Transient: no
          Array Rank:  1

    Sub Condition: temperature
      Type: dirichlet
      Gradient:
      Data:
        Dataset: Unnamed Ascii Dataset
          Type: dataset_ascii_type
          Transient: no
          Array Rank:  1

--------------------------------------------------------------------------------

=+=+=+=+=+=+=+=+=+=+=+=+=+=+=+=+=+=+=+=+=+=+=+=+=+=+=+=+=+=+=+=+=+=+=+=+=+=+=+=+

  Boundary Condition

--------------------------------------------------------------------------------
          Flow Condition:   initial
                  Region:   south
--------------------------------------------------------------------------------

  Flow Condition: initial
    Synchronize time with update: no
    Time units: yr
    Length units: m
      Datum:
        Dataset: Unnamed Ascii Dataset
          Type: dataset_ascii_type
          Transient: no
          Array Rank:  3

    Sub Condition: pressure
      Type: hydrostatic
      Gradient:
        Dataset: Unnamed Ascii Dataset
          Type: dataset_ascii_type
          Transient: no
          Array Rank:  3
      Data:
        Dataset: Unnamed Ascii Dataset
          Type: dataset_ascii_type
          Transient: no
          Array Rank:  1

    Sub Condition: temperature
      Type: dirichlet
      Gradient:
      Data:
        Dataset: Unnamed Ascii Dataset
          Type: dataset_ascii_type
          Transient: no
          Array Rank:  1

--------------------------------------------------------------------------------

=+=+=+=+=+=+=+=+=+=+=+=+=+=+=+=+=+=+=+=+=+=+=+=+=+=+=+=+=+=+=+=+=+=+=+=+=+=+=+=+

  Source Sink

--------------------------------------------------------------------------------
          Flow Condition:   injection
                  Region:   heatpump_inject0
--------------------------------------------------------------------------------

  Flow Condition: injection
    Synchronize time with update: no
    Time units: yr
    Length units: m
      Datum:

    Sub Condition: rate
      Type: scaled volumetric rate
      Gradient:
      Data:
        Dataset: Unnamed Ascii Dataset
          Type: dataset_ascii_type
          Is transient?: yes
          Number of times:      3
          Is cyclic?: no
          Buffer:
            Rank:  2
            Dims:    1   3
            Buffer Slice Size:   0
          Array Rank:  1

    Sub Condition: temperature
      Type: dirichlet
      Gradient:
      Data:
        Dataset: Unnamed Ascii Dataset
          Type: dataset_ascii_type
          Transient: no
          Array Rank:  1

--------------------------------------------------------------------------------

 Requested processors =    16

FLOW Time Stepper
                 acceleration: on
       acceleration threshold: 5
       number of ramp entries: 5
                ramp entry #1: 2.0000
                ramp entry #2: 2.0000
                ramp entry #3: 2.0000
                ramp entry #4: 2.0000
                ramp entry #5: 2.0000
                ramp entry #6: 1.8000
                ramp entry #7: 1.6000
                ramp entry #8: 1.4000
                ramp entry #9: 1.2000
               ramp entry #10: 1.0000
               ramp entry #11: 1.0000
               ramp entry #12: 1.0000
               ramp entry #13: 1.0000
      maximum number of steps: 999999
constant time steps threshold: 5
       maximum number of cuts: 16
             reduction factor: 5.000000E-01
        maximum growth factor: 2.000000E+00

FLOW Newton Solver
                         atol: 1.000000E-50
                         rtol: 1.000000E-03
                         stol: 1.000000E-08
                         dtol: 1.000000E+04
                      maxnorm: 1.000000E+20
                    inftolres: -9.990000E+02
                    inftolupd: 1.000000E+00
                 inftolrelupd: -9.990000E+02
                 inftolsclres: -9.990000E+02
                     max iter: 50
                     min iter: 1
                         maxf: 10000
                  matrix type: baij
         precond. matrix type: baij
               inexact newton: off
            print convergence: on
   print detailed convergence: off
          check infinity norm: on

FLOW Linear Solver
                       solver: bcgs
               preconditioner: bjacobi
                         atol: 1.000000E-50
                         rtol: 1.000000E-05
                         dtol: 1.000000E+04
            maximum iteration: 10000

== TH FLOW =====================================================================
 Step      1 Time=  1.00000E-05 Dt=  1.00000E-05 [y] snes_conv_reason:   11
  newton =   1 [       1] linear =    63 [        63] cuts =  0 [   0]
  --> max chng: dpmx=   3.8343E-02 dtmpmx=   3.7453E-09

== TH FLOW =====================================================================
 Step      2 Time=  3.00000E-05 Dt=  2.00000E-05 [y] snes_conv_reason:   11
  newton =   1 [       2] linear =    65 [       128] cuts =  0 [   0]
  --> max chng: dpmx=   1.2195E-02 dtmpmx=   7.4098E-09

== TH FLOW =====================================================================
 Step      3 Time=  7.00000E-05 Dt=  4.00000E-05 [y] snes_conv_reason:   11
  newton =   1 [       3] linear =    83 [       211] cuts =  0 [   0]
  --> max chng: dpmx=   2.0376E-03 dtmpmx=   1.4792E-08

== TH FLOW =====================================================================
 Step      4 Time=  1.50000E-04 Dt=  8.00000E-05 [y] snes_conv_reason:   11
  newton =   1 [       4] linear =   116 [       327] cuts =  0 [   0]
  --> max chng: dpmx=   1.7678E-04 dtmpmx=   2.9579E-08

== TH FLOW =====================================================================
 Step      5 Time=  3.10000E-04 Dt=  1.60000E-04 [y] snes_conv_reason:   11
  newton =   1 [       5] linear =   114 [       441] cuts =  0 [   0]
  --> max chng: dpmx=   7.7586E-06 dtmpmx=   5.9158E-08

== TH FLOW =====================================================================
 Step      6 Time=  6.30000E-04 Dt=  3.20000E-04 [y] snes_conv_reason:   11
  newton =   1 [       6] linear =   119 [       560] cuts =  0 [   0]
  --> max chng: dpmx=   3.0955E-07 dtmpmx=   1.1832E-07

== TH FLOW =====================================================================
 Step      7 Time=  1.27000E-03 Dt=  6.40000E-04 [y] snes_conv_reason:   11
  newton =   1 [       7] linear =   111 [       671] cuts =  0 [   0]
  --> max chng: dpmx=   6.3283E-07 dtmpmx=   2.3663E-07

== TH FLOW =====================================================================
 Step      8 Time=  2.55000E-03 Dt=  1.28000E-03 [y] snes_conv_reason:   11
  newton =   1 [       8] linear =   111 [       782] cuts =  0 [   0]
  --> max chng: dpmx=   1.2920E-06 dtmpmx=   4.7326E-07

== TH FLOW =====================================================================
 Step      9 Time=  5.11000E-03 Dt=  2.56000E-03 [y] snes_conv_reason:   11
  newton =   1 [       9] linear =   116 [       898] cuts =  0 [   0]
  --> max chng: dpmx=   2.6857E-06 dtmpmx=   9.4652E-07

== TH FLOW =====================================================================
 Step     10 Time=  1.02300E-02 Dt=  5.12000E-03 [y] snes_conv_reason:   11
  newton =   1 [      10] linear =   122 [      1020] cuts =  0 [   0]
  --> max chng: dpmx=   5.7793E-06 dtmpmx=   1.8930E-06

== TH FLOW =====================================================================
 Step     11 Time=  2.04700E-02 Dt=  1.02400E-02 [y] snes_conv_reason:   11
  newton =   1 [      11] linear =   110 [      1130] cuts =  0 [   0]
  --> max chng: dpmx=   1.3201E-05 dtmpmx=   3.7861E-06

== TH FLOW =====================================================================
 Step     12 Time=  4.09500E-02 Dt=  2.04800E-02 [y] snes_conv_reason:   11
  newton =   1 [      12] linear =   121 [      1251] cuts =  0 [   0]
  --> max chng: dpmx=   3.2925E-05 dtmpmx=   7.5722E-06

== TH FLOW =====================================================================
 Step     13 Time=  8.19100E-02 Dt=  4.09600E-02 [y] snes_conv_reason:   11
  newton =   1 [      13] linear =   117 [      1368] cuts =  0 [   0]
  --> max chng: dpmx=   9.1602E-05 dtmpmx=   1.5144E-05

== TH FLOW =====================================================================
 Step     14 Time=  1.00000E-01 Dt=  1.80900E-02 [y] snes_conv_reason:   11
  newton =   1 [      14] linear =   119 [      1487] cuts =  0 [   0]
  --> max chng: dpmx=   4.5487E-05 dtmpmx=   6.6885E-06

== TH FLOW =====================================================================
 Step     15 Time=  1.50000E-01 Dt=  5.00000E-02 [y] snes_conv_reason:   11
  newton =   1 [      15] linear =   119 [      1606] cuts =  0 [   0]
  --> max chng: dpmx=   1.6359E-04 dtmpmx=   1.8487E-05

== TH FLOW =====================================================================
 Step     16 Time=  2.00000E-01 Dt=  5.00000E-02 [y] snes_conv_reason:   11
  newton =   1 [      16] linear =   121 [      1727] cuts =  0 [   0]
  --> max chng: dpmx=   2.0103E-04 dtmpmx=   1.8487E-05

== TH FLOW =====================================================================
 Step     17 Time=  2.50000E-01 Dt=  5.00000E-02 [y] snes_conv_reason:   11
  newton =   3 [      19] linear =   336 [      2063] cuts =  0 [   0]
  --> max chng: dpmx=   4.1488E+02 dtmpmx=   3.2961E+00

== TH FLOW =====================================================================
 Step     18 Time=  3.00000E-01 Dt=  5.00000E-02 [y] snes_conv_reason:   11
  newton =   2 [      21] linear =   241 [      2304] cuts =  0 [   0]
  --> max chng: dpmx=   3.2151E+00 dtmpmx=   1.3158E+00

== TH FLOW =====================================================================
 Step     19 Time=  3.50000E-01 Dt=  5.00000E-02 [y] snes_conv_reason:   11
  newton =   2 [      23] linear =   241 [      2545] cuts =  0 [   0]
  --> max chng: dpmx=   2.0327E+00 dtmpmx=   9.0841E-01

== TH FLOW =====================================================================
 Step     20 Time=  4.00000E-01 Dt=  5.00000E-02 [y] snes_conv_reason:   11
  newton =   2 [      25] linear =   240 [      2785] cuts =  0 [   0]
  --> max chng: dpmx=   1.8891E+00 dtmpmx=   7.2932E-01

== TH FLOW =====================================================================
 Step     21 Time=  4.50000E-01 Dt=  5.00000E-02 [y] snes_conv_reason:   11
  newton =   2 [      27] linear =   253 [      3038] cuts =  0 [   0]
  --> max chng: dpmx=   1.7842E+00 dtmpmx=   6.2443E-01

== TH FLOW =====================================================================
 Step     22 Time=  5.00000E-01 Dt=  5.00000E-02 [y] snes_conv_reason:   11
  newton =   2 [      29] linear =   238 [      3276] cuts =  0 [   0]
  --> max chng: dpmx=   1.7147E+00 dtmpmx=   5.5324E-01

== TH FLOW =====================================================================
 Step     23 Time=  5.50000E-01 Dt=  5.00000E-02 [y] snes_conv_reason:    3
  newton =   1 [      30] linear =   123 [      3399] cuts =  0 [   0]
  --> max chng: dpmx=   1.6572E+00 dtmpmx=   5.0087E-01

== TH FLOW =====================================================================
 Step     24 Time=  6.00000E-01 Dt=  5.00000E-02 [y] snes_conv_reason:    3
  newton =   1 [      31] linear =   125 [      3524] cuts =  0 [   0]
  --> max chng: dpmx=   1.6093E+00 dtmpmx=   4.5964E-01

== TH FLOW =====================================================================
 Step     25 Time=  6.50000E-01 Dt=  5.00000E-02 [y] snes_conv_reason:    3
  newton =   1 [      32] linear =   119 [      3643] cuts =  0 [   0]
  --> max chng: dpmx=   1.5719E+00 dtmpmx=   4.2611E-01

== TH FLOW =====================================================================
 Step     26 Time=  7.00000E-01 Dt=  5.00000E-02 [y] snes_conv_reason:    3
  newton =   1 [      33] linear =   123 [      3766] cuts =  0 [   0]
  --> max chng: dpmx=   1.5406E+00 dtmpmx=   3.9804E-01

== TH FLOW =====================================================================
 Step     27 Time=  7.50000E-01 Dt=  5.00000E-02 [y] snes_conv_reason:    3
  newton =   1 [      34] linear =   121 [      3887] cuts =  0 [   0]
  --> max chng: dpmx=   1.5102E+00 dtmpmx=   3.7403E-01

== TH FLOW =====================================================================
 Step     28 Time=  8.00000E-01 Dt=  5.00000E-02 [y] snes_conv_reason:    3
  newton =   1 [      35] linear =   124 [      4011] cuts =  0 [   0]
  --> max chng: dpmx=   1.4852E+00 dtmpmx=   3.5315E-01

== TH FLOW =====================================================================
 Step     29 Time=  8.50000E-01 Dt=  5.00000E-02 [y] snes_conv_reason:    3
  newton =   1 [      36] linear =   124 [      4135] cuts =  0 [   0]
  --> max chng: dpmx=   1.4639E+00 dtmpmx=   3.3484E-01

== TH FLOW =====================================================================
 Step     30 Time=  9.00000E-01 Dt=  5.00000E-02 [y] snes_conv_reason:    3
  newton =   1 [      37] linear =   120 [      4255] cuts =  0 [   0]
  --> max chng: dpmx=   1.4431E+00 dtmpmx=   3.2051E-01

== TH FLOW =====================================================================
 Step     31 Time=  9.50000E-01 Dt=  5.00000E-02 [y] snes_conv_reason:    3
  newton =   1 [      38] linear =   122 [      4377] cuts =  0 [   0]
  --> max chng: dpmx=   1.4246E+00 dtmpmx=   3.0739E-01

== TH FLOW =====================================================================
 Step     32 Time=  1.00000E+00 Dt=  5.00000E-02 [y] snes_conv_reason:    3
  newton =   1 [      39] linear =   120 [      4497] cuts =  0 [   0]
  --> max chng: dpmx=   1.4062E+00 dtmpmx=   2.9532E-01

== TH FLOW =====================================================================
 Step     33 Time=  1.05000E+00 Dt=  5.00000E-02 [y] snes_conv_reason:    3
  newton =   1 [      40] linear =   124 [      4621] cuts =  0 [   0]
  --> max chng: dpmx=   1.3914E+00 dtmpmx=   2.8417E-01

== TH FLOW =====================================================================
 Step     34 Time=  1.10000E+00 Dt=  5.00000E-02 [y] snes_conv_reason:    3
  newton =   1 [      41] linear =   118 [      4739] cuts =  0 [   0]
  --> max chng: dpmx=   1.3765E+00 dtmpmx=   2.7381E-01

== TH FLOW =====================================================================
 Step     35 Time=  1.15000E+00 Dt=  5.00000E-02 [y] snes_conv_reason:    3
  newton =   1 [      42] linear =   123 [      4862] cuts =  0 [   0]
  --> max chng: dpmx=   1.3624E+00 dtmpmx=   2.6417E-01

== TH FLOW =====================================================================
 Step     36 Time=  1.20000E+00 Dt=  5.00000E-02 [y] snes_conv_reason:    3
  newton =   1 [      43] linear =   123 [      4985] cuts =  0 [   0]
  --> max chng: dpmx=   1.3489E+00 dtmpmx=   2.5515E-01

== TH FLOW =====================================================================
 Step     37 Time=  1.25000E+00 Dt=  5.00000E-02 [y] snes_conv_reason:    3
  newton =   1 [      44] linear =   116 [      5101] cuts =  0 [   0]
  --> max chng: dpmx=   1.3356E+00 dtmpmx=   2.4694E-01

== TH FLOW =====================================================================
 Step     38 Time=  1.30000E+00 Dt=  5.00000E-02 [y] snes_conv_reason:    3
  newton =   1 [      45] linear =   121 [      5222] cuts =  0 [   0]
  --> max chng: dpmx=   1.3238E+00 dtmpmx=   2.4004E-01

== TH FLOW =====================================================================
 Step     39 Time=  1.35000E+00 Dt=  5.00000E-02 [y] snes_conv_reason:    3
  newton =   1 [      46] linear =   121 [      5343] cuts =  0 [   0]
  --> max chng: dpmx=   1.3119E+00 dtmpmx=   2.3344E-01

== TH FLOW =====================================================================
 Step     40 Time=  1.40000E+00 Dt=  5.00000E-02 [y] snes_conv_reason:    3
  newton =   1 [      47] linear =   120 [      5463] cuts =  0 [   0]
  --> max chng: dpmx=   1.3011E+00 dtmpmx=   2.2714E-01

== TH FLOW =====================================================================
 Step     41 Time=  1.45000E+00 Dt=  5.00000E-02 [y] snes_conv_reason:    3
  newton =   1 [      48] linear =   108 [      5571] cuts =  0 [   0]
  --> max chng: dpmx=   1.2895E+00 dtmpmx=   2.2111E-01

== TH FLOW =====================================================================
 Step     42 Time=  1.50000E+00 Dt=  5.00000E-02 [y] snes_conv_reason:    3
  newton =   1 [      49] linear =   121 [      5692] cuts =  0 [   0]
  --> max chng: dpmx=   1.2805E+00 dtmpmx=   2.1534E-01

== TH FLOW =====================================================================
 Step     43 Time=  1.55000E+00 Dt=  5.00000E-02 [y] snes_conv_reason:    3
  newton =   1 [      50] linear =   118 [      5810] cuts =  0 [   0]
  --> max chng: dpmx=   1.2690E+00 dtmpmx=   2.0980E-01

== TH FLOW =====================================================================
 Step     44 Time=  1.60000E+00 Dt=  5.00000E-02 [y] snes_conv_reason:    3
  newton =   1 [      51] linear =   121 [      5931] cuts =  0 [   0]
  --> max chng: dpmx=   1.2594E+00 dtmpmx=   2.0450E-01

== TH FLOW =====================================================================
 Step     45 Time=  1.65000E+00 Dt=  5.00000E-02 [y] snes_conv_reason:    3
  newton =   1 [      52] linear =   121 [      6052] cuts =  0 [   0]
  --> max chng: dpmx=   1.2492E+00 dtmpmx=   1.9986E-01

== TH FLOW =====================================================================
 Step     46 Time=  1.70000E+00 Dt=  5.00000E-02 [y] snes_conv_reason:    3
  newton =   1 [      53] linear =   121 [      6173] cuts =  0 [   0]
  --> max chng: dpmx=   1.2398E+00 dtmpmx=   1.9559E-01

== TH FLOW =====================================================================
 Step     47 Time=  1.75000E+00 Dt=  5.00000E-02 [y] snes_conv_reason:    3
  newton =   1 [      54] linear =   119 [      6292] cuts =  0 [   0]
  --> max chng: dpmx=   1.2299E+00 dtmpmx=   1.9144E-01

== TH FLOW =====================================================================
 Step     48 Time=  1.80000E+00 Dt=  5.00000E-02 [y] snes_conv_reason:    3
  newton =   1 [      55] linear =   121 [      6413] cuts =  0 [   0]
  --> max chng: dpmx=   1.2216E+00 dtmpmx=   1.8740E-01

== TH FLOW =====================================================================
 Step     49 Time=  1.85000E+00 Dt=  5.00000E-02 [y] snes_conv_reason:    3
  newton =   1 [      56] linear =   120 [      6533] cuts =  0 [   0]
  --> max chng: dpmx=   1.2132E+00 dtmpmx=   1.8348E-01

== TH FLOW =====================================================================
 Step     50 Time=  1.90000E+00 Dt=  5.00000E-02 [y] snes_conv_reason:    3
  newton =   1 [      57] linear =   119 [      6652] cuts =  0 [   0]
  --> max chng: dpmx=   1.2033E+00 dtmpmx=   1.7967E-01

== TH FLOW =====================================================================
 Step     51 Time=  1.95000E+00 Dt=  5.00000E-02 [y] snes_conv_reason:    3
  newton =   1 [      58] linear =   120 [      6772] cuts =  0 [   0]
  --> max chng: dpmx=   1.1955E+00 dtmpmx=   1.7598E-01

== TH FLOW =====================================================================
 Step     52 Time=  2.00000E+00 Dt=  5.00000E-02 [y] snes_conv_reason:    3
  newton =   1 [      59] linear =   119 [      6891] cuts =  0 [   0]
  --> max chng: dpmx=   1.1869E+00 dtmpmx=   1.7249E-01

== TH FLOW =====================================================================
 Step     53 Time=  2.05000E+00 Dt=  5.00000E-02 [y] snes_conv_reason:    3
  newton =   1 [      60] linear =   113 [      7004] cuts =  0 [   0]
  --> max chng: dpmx=   1.1780E+00 dtmpmx=   1.6946E-01

== TH FLOW =====================================================================
 Step     54 Time=  2.10000E+00 Dt=  5.00000E-02 [y] snes_conv_reason:    3
  newton =   1 [      61] linear =   121 [      7125] cuts =  0 [   0]
  --> max chng: dpmx=   1.1694E+00 dtmpmx=   1.6648E-01

== TH FLOW =====================================================================
 Step     55 Time=  2.15000E+00 Dt=  5.00000E-02 [y] snes_conv_reason:    3
  newton =   1 [      62] linear =   117 [      7242] cuts =  0 [   0]
  --> max chng: dpmx=   1.1622E+00 dtmpmx=   1.6356E-01

== TH FLOW =====================================================================
 Step     56 Time=  2.20000E+00 Dt=  5.00000E-02 [y] snes_conv_reason:    3
  newton =   1 [      63] linear =   118 [      7360] cuts =  0 [   0]
  --> max chng: dpmx=   1.1532E+00 dtmpmx=   1.6069E-01

== TH FLOW =====================================================================
 Step     57 Time=  2.25000E+00 Dt=  5.00000E-02 [y] snes_conv_reason:    3
  newton =   1 [      64] linear =   118 [      7478] cuts =  0 [   0]
  --> max chng: dpmx=   1.1449E+00 dtmpmx=   1.5788E-01

== TH FLOW =====================================================================
 Step     58 Time=  2.30000E+00 Dt=  5.00000E-02 [y] snes_conv_reason:    3
  newton =   1 [      65] linear =   123 [      7601] cuts =  0 [   0]
  --> max chng: dpmx=   1.1375E+00 dtmpmx=   1.5514E-01

== TH FLOW =====================================================================
 Step     59 Time=  2.35000E+00 Dt=  5.00000E-02 [y] snes_conv_reason:    3
  newton =   1 [      66] linear =   121 [      7722] cuts =  0 [   0]
  --> max chng: dpmx=   1.1295E+00 dtmpmx=   1.5244E-01

== TH FLOW =====================================================================
 Step     60 Time=  2.40000E+00 Dt=  5.00000E-02 [y] snes_conv_reason:    3
  newton =   1 [      67] linear =   122 [      7844] cuts =  0 [   0]
  --> max chng: dpmx=   1.1220E+00 dtmpmx=   1.5010E-01

== TH FLOW =====================================================================
 Step     61 Time=  2.45000E+00 Dt=  5.00000E-02 [y] snes_conv_reason:    3
  newton =   1 [      68] linear =   116 [      7960] cuts =  0 [   0]
  --> max chng: dpmx=   1.1138E+00 dtmpmx=   1.4784E-01

== TH FLOW =====================================================================
 Step     62 Time=  2.50000E+00 Dt=  5.00000E-02 [y] snes_conv_reason:    3
  newton =   1 [      69] linear =   120 [      8080] cuts =  0 [   0]
  --> max chng: dpmx=   1.1068E+00 dtmpmx=   1.4562E-01

== TH FLOW =====================================================================
 Step     63 Time=  2.55000E+00 Dt=  5.00000E-02 [y] snes_conv_reason:    3
  newton =   1 [      70] linear =   117 [      8197] cuts =  0 [   0]
  --> max chng: dpmx=   1.0993E+00 dtmpmx=   1.4342E-01

== TH FLOW =====================================================================
 Step     64 Time=  2.60000E+00 Dt=  5.00000E-02 [y] snes_conv_reason:    3
  newton =   1 [      71] linear =   121 [      8318] cuts =  0 [   0]
  --> max chng: dpmx=   1.0912E+00 dtmpmx=   1.4125E-01

== TH FLOW =====================================================================
 Step     65 Time=  2.65000E+00 Dt=  5.00000E-02 [y] snes_conv_reason:    3
  newton =   1 [      72] linear =   121 [      8439] cuts =  0 [   0]
  --> max chng: dpmx=   1.0845E+00 dtmpmx=   1.3912E-01

== TH FLOW =====================================================================
 Step     66 Time=  2.70000E+00 Dt=  5.00000E-02 [y] snes_conv_reason:    3
  newton =   1 [      73] linear =   123 [      8562] cuts =  0 [   0]
  --> max chng: dpmx=   1.0762E+00 dtmpmx=   1.3701E-01

== TH FLOW =====================================================================
 Step     67 Time=  2.75000E+00 Dt=  5.00000E-02 [y] snes_conv_reason:    3
  newton =   1 [      74] linear =   118 [      8680] cuts =  0 [   0]
  --> max chng: dpmx=   1.0698E+00 dtmpmx=   1.3508E-01

== TH FLOW =====================================================================
 Step     68 Time=  2.80000E+00 Dt=  5.00000E-02 [y] snes_conv_reason:    3
  newton =   1 [      75] linear =   123 [      8803] cuts =  0 [   0]
  --> max chng: dpmx=   1.0620E+00 dtmpmx=   1.3330E-01

== TH FLOW =====================================================================
 Step     69 Time=  2.85000E+00 Dt=  5.00000E-02 [y] snes_conv_reason:    3
  newton =   1 [      76] linear =   124 [      8927] cuts =  0 [   0]
  --> max chng: dpmx=   1.0546E+00 dtmpmx=   1.3154E-01

== TH FLOW =====================================================================
 Step     70 Time=  2.90000E+00 Dt=  5.00000E-02 [y] snes_conv_reason:    3
  newton =   1 [      77] linear =   118 [      9045] cuts =  0 [   0]
  --> max chng: dpmx=   1.0474E+00 dtmpmx=   1.2979E-01

== TH FLOW =====================================================================
 Step     71 Time=  2.95000E+00 Dt=  5.00000E-02 [y] snes_conv_reason:    3
  newton =   1 [      78] linear =   120 [      9165] cuts =  0 [   0]
  --> max chng: dpmx=   1.0401E+00 dtmpmx=   1.2807E-01

== TH FLOW =====================================================================
 Step     72 Time=  3.00000E+00 Dt=  5.00000E-02 [y] snes_conv_reason:    3
  newton =   1 [      79] linear =   120 [      9285] cuts =  0 [   0]
  --> max chng: dpmx=   1.0334E+00 dtmpmx=   1.2636E-01

== TH FLOW =====================================================================
 Step     73 Time=  3.05000E+00 Dt=  5.00000E-02 [y] snes_conv_reason:    3
  newton =   1 [      80] linear =   120 [      9405] cuts =  0 [   0]
  --> max chng: dpmx=   1.0260E+00 dtmpmx=   1.2467E-01

== TH FLOW =====================================================================
 Step     74 Time=  3.10000E+00 Dt=  5.00000E-02 [y] snes_conv_reason:    3
  newton =   1 [      81] linear =   116 [      9521] cuts =  0 [   0]
  --> max chng: dpmx=   1.0184E+00 dtmpmx=   1.2303E-01

== TH FLOW =====================================================================
 Step     75 Time=  3.15000E+00 Dt=  5.00000E-02 [y] snes_conv_reason:    3
  newton =   1 [      82] linear =   118 [      9639] cuts =  0 [   0]
  --> max chng: dpmx=   1.0122E+00 dtmpmx=   1.2159E-01

== TH FLOW =====================================================================
 Step     76 Time=  3.20000E+00 Dt=  5.00000E-02 [y] snes_conv_reason:    3
  newton =   1 [      83] linear =   122 [      9761] cuts =  0 [   0]
  --> max chng: dpmx=   1.0044E+00 dtmpmx=   1.2016E-01

== TH FLOW =====================================================================
 Step     77 Time=  3.25000E+00 Dt=  5.00000E-02 [y] snes_conv_reason:   11
  newton =   1 [      84] linear =   120 [      9881] cuts =  0 [   0]
  --> max chng: dpmx=   9.9805E-01 dtmpmx=   1.1873E-01

== TH FLOW =====================================================================
 Step     78 Time=  3.30000E+00 Dt=  5.00000E-02 [y] snes_conv_reason:   11
  newton =   1 [      85] linear =   124 [     10005] cuts =  0 [   0]
  --> max chng: dpmx=   9.9065E-01 dtmpmx=   1.1732E-01

== TH FLOW =====================================================================
 Step     79 Time=  3.35000E+00 Dt=  5.00000E-02 [y] snes_conv_reason:   11
  newton =   1 [      86] linear =   120 [     10125] cuts =  0 [   0]
  --> max chng: dpmx=   9.8410E-01 dtmpmx=   1.1592E-01

== TH FLOW =====================================================================
 Step     80 Time=  3.40000E+00 Dt=  5.00000E-02 [y] snes_conv_reason:   11
  newton =   1 [      87] linear =   108 [     10233] cuts =  0 [   0]
  --> max chng: dpmx=   9.7675E-01 dtmpmx=   1.1452E-01

== TH FLOW =====================================================================
 Step     81 Time=  3.45000E+00 Dt=  5.00000E-02 [y] snes_conv_reason:   11
  newton =   1 [      88] linear =   121 [     10354] cuts =  0 [   0]
  --> max chng: dpmx=   9.7036E-01 dtmpmx=   1.1314E-01

== TH FLOW =====================================================================
 Step     82 Time=  3.50000E+00 Dt=  5.00000E-02 [y] snes_conv_reason:   11
  newton =   1 [      89] linear =   118 [     10472] cuts =  0 [   0]
  --> max chng: dpmx=   9.6319E-01 dtmpmx=   1.1192E-01

== TH FLOW =====================================================================
 Step     83 Time=  3.55000E+00 Dt=  5.00000E-02 [y] snes_conv_reason:   11
  newton =   1 [      90] linear =   120 [     10592] cuts =  0 [   0]
  --> max chng: dpmx=   9.5637E-01 dtmpmx=   1.1073E-01

== TH FLOW =====================================================================
 Step     84 Time=  3.60000E+00 Dt=  5.00000E-02 [y] snes_conv_reason:   11
  newton =   1 [      91] linear =   118 [     10710] cuts =  0 [   0]
  --> max chng: dpmx=   9.4937E-01 dtmpmx=   1.0955E-01

== TH FLOW =====================================================================
 Step     85 Time=  3.65000E+00 Dt=  5.00000E-02 [y] snes_conv_reason:   11
  newton =   1 [      92] linear =   118 [     10828] cuts =  0 [   0]
  --> max chng: dpmx=   9.4290E-01 dtmpmx=   1.0837E-01

== TH FLOW =====================================================================
 Step     86 Time=  3.70000E+00 Dt=  5.00000E-02 [y] snes_conv_reason:   11
  newton =   1 [      93] linear =   118 [     10946] cuts =  0 [   0]
  --> max chng: dpmx=   9.3605E-01 dtmpmx=   1.0719E-01

== TH FLOW =====================================================================
 Step     87 Time=  3.75000E+00 Dt=  5.00000E-02 [y] snes_conv_reason:   11
  newton =   1 [      94] linear =   111 [     11057] cuts =  0 [   0]
  --> max chng: dpmx=   9.2918E-01 dtmpmx=   1.0603E-01

== TH FLOW =====================================================================
 Step     88 Time=  3.80000E+00 Dt=  5.00000E-02 [y] snes_conv_reason:   11
  newton =   1 [      95] linear =   115 [     11172] cuts =  0 [   0]
  --> max chng: dpmx=   9.2270E-01 dtmpmx=   1.0486E-01

== TH FLOW =====================================================================
 Step     89 Time=  3.85000E+00 Dt=  5.00000E-02 [y] snes_conv_reason:   11
  newton =   1 [      96] linear =   116 [     11288] cuts =  0 [   0]
  --> max chng: dpmx=   9.1553E-01 dtmpmx=   1.0379E-01

== TH FLOW =====================================================================
 Step     90 Time=  3.90000E+00 Dt=  5.00000E-02 [y] snes_conv_reason:   11
  newton =   1 [      97] linear =   116 [     11404] cuts =  0 [   0]
  --> max chng: dpmx=   9.0977E-01 dtmpmx=   1.0278E-01

== TH FLOW =====================================================================
 Step     91 Time=  3.95000E+00 Dt=  5.00000E-02 [y] snes_conv_reason:   11
  newton =   1 [      98] linear =   115 [     11519] cuts =  0 [   0]
  --> max chng: dpmx=   9.0220E-01 dtmpmx=   1.0178E-01

== TH FLOW =====================================================================
 Step     92 Time=  4.00000E+00 Dt=  5.00000E-02 [y] snes_conv_reason:   11
  newton =   1 [      99] linear =   118 [     11637] cuts =  0 [   0]
  --> max chng: dpmx=   8.9608E-01 dtmpmx=   1.0078E-01

== TH FLOW =====================================================================
 Step     93 Time=  4.05000E+00 Dt=  5.00000E-02 [y] snes_conv_reason:   11
  newton =   1 [     100] linear =   115 [     11752] cuts =  0 [   0]
  --> max chng: dpmx=   8.8925E-01 dtmpmx=   9.9782E-02

== TH FLOW =====================================================================
 Step     94 Time=  4.10000E+00 Dt=  5.00000E-02 [y] snes_conv_reason:   11
  newton =   1 [     101] linear =   117 [     11869] cuts =  0 [   0]
  --> max chng: dpmx=   8.8237E-01 dtmpmx=   9.8788E-02

== TH FLOW =====================================================================
 Step     95 Time=  4.15000E+00 Dt=  5.00000E-02 [y] snes_conv_reason:   11
  newton =   1 [     102] linear =   117 [     11986] cuts =  0 [   0]
  --> max chng: dpmx=   8.7625E-01 dtmpmx=   9.7796E-02

== TH FLOW =====================================================================
 Step     96 Time=  4.20000E+00 Dt=  5.00000E-02 [y] snes_conv_reason:   11
  newton =   1 [     103] linear =   119 [     12105] cuts =  0 [   0]
  --> max chng: dpmx=   8.6891E-01 dtmpmx=   9.6834E-02

== TH FLOW =====================================================================
 Step     97 Time=  4.25000E+00 Dt=  5.00000E-02 [y] snes_conv_reason:   11
  newton =   1 [     104] linear =   112 [     12217] cuts =  0 [   0]
  --> max chng: dpmx=   8.6309E-01 dtmpmx=   9.5975E-02

== TH FLOW =====================================================================
 Step     98 Time=  4.30000E+00 Dt=  5.00000E-02 [y] snes_conv_reason:   11
  newton =   1 [     105] linear =   118 [     12335] cuts =  0 [   0]
  --> max chng: dpmx=   8.5671E-01 dtmpmx=   9.5116E-02

== TH FLOW =====================================================================
 Step     99 Time=  4.35000E+00 Dt=  5.00000E-02 [y] snes_conv_reason:   11
  newton =   1 [     106] linear =   115 [     12450] cuts =  0 [   0]
  --> max chng: dpmx=   8.4946E-01 dtmpmx=   9.4256E-02

== TH FLOW =====================================================================
 Step    100 Time=  4.40000E+00 Dt=  5.00000E-02 [y] snes_conv_reason:   11
  newton =   1 [     107] linear =   123 [     12573] cuts =  0 [   0]
  --> max chng: dpmx=   8.4333E-01 dtmpmx=   9.3398E-02

== TH FLOW =====================================================================
 Step    101 Time=  4.45000E+00 Dt=  5.00000E-02 [y] snes_conv_reason:   11
  newton =   1 [     108] linear =   115 [     12688] cuts =  0 [   0]
  --> max chng: dpmx=   8.3667E-01 dtmpmx=   9.2540E-02

== TH FLOW =====================================================================
 Step    102 Time=  4.50000E+00 Dt=  5.00000E-02 [y] snes_conv_reason:   11
  newton =   1 [     109] linear =   124 [     12812] cuts =  0 [   0]
  --> max chng: dpmx=   8.3029E-01 dtmpmx=   9.1683E-02

== TH FLOW =====================================================================
 Step    103 Time=  4.55000E+00 Dt=  5.00000E-02 [y] snes_conv_reason:   11
  newton =   1 [     110] linear =   122 [     12934] cuts =  0 [   0]
  --> max chng: dpmx=   8.2377E-01 dtmpmx=   9.0829E-02

== TH FLOW =====================================================================
 Step    104 Time=  4.60000E+00 Dt=  5.00000E-02 [y] snes_conv_reason:   11
  newton =   1 [     111] linear =   116 [     13050] cuts =  0 [   0]
  --> max chng: dpmx=   8.1704E-01 dtmpmx=   9.0071E-02

== TH FLOW =====================================================================
 Step    105 Time=  4.65000E+00 Dt=  5.00000E-02 [y] snes_conv_reason:   11
  newton =   1 [     112] linear =   115 [     13165] cuts =  0 [   0]
  --> max chng: dpmx=   8.1095E-01 dtmpmx=   8.9326E-02

== TH FLOW =====================================================================
 Step    106 Time=  4.70000E+00 Dt=  5.00000E-02 [y] snes_conv_reason:   11
  newton =   1 [     113] linear =   119 [     13284] cuts =  0 [   0]
  --> max chng: dpmx=   8.0447E-01 dtmpmx=   8.8580E-02

== TH FLOW =====================================================================
 Step    107 Time=  4.75000E+00 Dt=  5.00000E-02 [y] snes_conv_reason:   11
  newton =   1 [     114] linear =   120 [     13404] cuts =  0 [   0]
  --> max chng: dpmx=   7.9796E-01 dtmpmx=   8.7832E-02

== TH FLOW =====================================================================
 Step    108 Time=  4.80000E+00 Dt=  5.00000E-02 [y] snes_conv_reason:   11
  newton =   1 [     115] linear =   112 [     13516] cuts =  0 [   0]
  --> max chng: dpmx=   7.9167E-01 dtmpmx=   8.7085E-02

== TH FLOW =====================================================================
 Step    109 Time=  4.85000E+00 Dt=  5.00000E-02 [y] snes_conv_reason:   11
  newton =   1 [     116] linear =   115 [     13631] cuts =  0 [   0]
  --> max chng: dpmx=   7.8454E-01 dtmpmx=   8.6337E-02

== TH FLOW =====================================================================
 Step    110 Time=  4.90000E+00 Dt=  5.00000E-02 [y] snes_conv_reason:   11
  newton =   1 [     117] linear =   117 [     13748] cuts =  0 [   0]
  --> max chng: dpmx=   7.7905E-01 dtmpmx=   8.5590E-02

== TH FLOW =====================================================================
 Step    111 Time=  4.95000E+00 Dt=  5.00000E-02 [y] snes_conv_reason:   11
  newton =   1 [     118] linear =   123 [     13871] cuts =  0 [   0]
  --> max chng: dpmx=   7.7203E-01 dtmpmx=   8.4897E-02

== TH FLOW =====================================================================
 Step    112 Time=  5.00000E+00 Dt=  5.00000E-02 [y] snes_conv_reason:   11
  newton =   1 [     119] linear =   120 [     13991] cuts =  0 [   0]
  --> max chng: dpmx=   7.6571E-01 dtmpmx=   8.4244E-02

== TH FLOW =====================================================================
 Step    113 Time=  5.05000E+00 Dt=  5.00000E-02 [y] snes_conv_reason:   11
  newton =   1 [     120] linear =   118 [     14109] cuts =  0 [   0]
  --> max chng: dpmx=   7.5934E-01 dtmpmx=   8.3589E-02

== TH FLOW =====================================================================
 Step    114 Time=  5.10000E+00 Dt=  5.00000E-02 [y] snes_conv_reason:   11
  newton =   1 [     121] linear =   121 [     14230] cuts =  0 [   0]
  --> max chng: dpmx=   7.5327E-01 dtmpmx=   8.2933E-02

== TH FLOW =====================================================================
 Step    115 Time=  5.15000E+00 Dt=  5.00000E-02 [y] snes_conv_reason:   11
  newton =   1 [     122] linear =   124 [     14354] cuts =  0 [   0]
  --> max chng: dpmx=   7.4658E-01 dtmpmx=   8.2275E-02

== TH FLOW =====================================================================
 Step    116 Time=  5.20000E+00 Dt=  5.00000E-02 [y] snes_conv_reason:   11
  newton =   1 [     123] linear =   117 [     14471] cuts =  0 [   0]
  --> max chng: dpmx=   7.4048E-01 dtmpmx=   8.1617E-02

== TH FLOW =====================================================================
 Step    117 Time=  5.25000E+00 Dt=  5.00000E-02 [y] snes_conv_reason:   11
  newton =   1 [     124] linear =   117 [     14588] cuts =  0 [   0]
  --> max chng: dpmx=   7.3382E-01 dtmpmx=   8.0958E-02

== TH FLOW =====================================================================
 Step    118 Time=  5.30000E+00 Dt=  5.00000E-02 [y] snes_conv_reason:   11
  newton =   1 [     125] linear =   120 [     14708] cuts =  0 [   0]
  --> max chng: dpmx=   7.2760E-01 dtmpmx=   8.0319E-02

== TH FLOW =====================================================================
 Step    119 Time=  5.35000E+00 Dt=  5.00000E-02 [y] snes_conv_reason:   11
  newton =   1 [     126] linear =   120 [     14828] cuts =  0 [   0]
  --> max chng: dpmx=   7.2123E-01 dtmpmx=   7.9742E-02

== TH FLOW =====================================================================
 Step    120 Time=  5.40000E+00 Dt=  5.00000E-02 [y] snes_conv_reason:   11
  newton =   1 [     127] linear =   115 [     14943] cuts =  0 [   0]
  --> max chng: dpmx=   7.1480E-01 dtmpmx=   7.9163E-02

== TH FLOW =====================================================================
 Step    121 Time=  5.45000E+00 Dt=  5.00000E-02 [y] snes_conv_reason:   11
  newton =   1 [     128] linear =   114 [     15057] cuts =  0 [   0]
  --> max chng: dpmx=   7.0833E-01 dtmpmx=   7.8582E-02

== TH FLOW =====================================================================
 Step    122 Time=  5.50000E+00 Dt=  5.00000E-02 [y] snes_conv_reason:   11
  newton =   1 [     129] linear =   120 [     15177] cuts =  0 [   0]
  --> max chng: dpmx=   7.0244E-01 dtmpmx=   7.7999E-02

== TH FLOW =====================================================================
 Step    123 Time=  5.55000E+00 Dt=  5.00000E-02 [y] snes_conv_reason:   11
  newton =   1 [     130] linear =   120 [     15297] cuts =  0 [   0]
  --> max chng: dpmx=   6.9587E-01 dtmpmx=   7.7414E-02

== TH FLOW =====================================================================
 Step    124 Time=  5.60000E+00 Dt=  5.00000E-02 [y] snes_conv_reason:   11
  newton =   1 [     131] linear =   117 [     15414] cuts =  0 [   0]
  --> max chng: dpmx=   6.8989E-01 dtmpmx=   7.6829E-02

== TH FLOW =====================================================================
 Step    125 Time=  5.65000E+00 Dt=  5.00000E-02 [y] snes_conv_reason:   11
  newton =   1 [     132] linear =   118 [     15532] cuts =  0 [   0]
  --> max chng: dpmx=   6.8309E-01 dtmpmx=   7.6243E-02

== TH FLOW =====================================================================
 Step    126 Time=  5.70000E+00 Dt=  5.00000E-02 [y] snes_conv_reason:   11
  newton =   1 [     133] linear =   118 [     15650] cuts =  0 [   0]
  --> max chng: dpmx=   6.7681E-01 dtmpmx=   7.5723E-02

== TH FLOW =====================================================================
 Step    127 Time=  5.75000E+00 Dt=  5.00000E-02 [y] snes_conv_reason:   11
  newton =   1 [     134] linear =   120 [     15770] cuts =  0 [   0]
  --> max chng: dpmx=   6.7082E-01 dtmpmx=   7.5207E-02

== TH FLOW =====================================================================
 Step    128 Time=  5.80000E+00 Dt=  5.00000E-02 [y] snes_conv_reason:   11
  newton =   1 [     135] linear =   115 [     15885] cuts =  0 [   0]
  --> max chng: dpmx=   6.6441E-01 dtmpmx=   7.4689E-02

== TH FLOW =====================================================================
 Step    129 Time=  5.85000E+00 Dt=  5.00000E-02 [y] snes_conv_reason:   11
  newton =   1 [     136] linear =   116 [     16001] cuts =  0 [   0]
  --> max chng: dpmx=   6.5809E-01 dtmpmx=   7.4169E-02

== TH FLOW =====================================================================
 Step    130 Time=  5.90000E+00 Dt=  5.00000E-02 [y] snes_conv_reason:   11
  newton =   1 [     137] linear =   116 [     16117] cuts =  0 [   0]
  --> max chng: dpmx=   6.5166E-01 dtmpmx=   7.3647E-02

== TH FLOW =====================================================================
 Step    131 Time=  5.95000E+00 Dt=  5.00000E-02 [y] snes_conv_reason:   11
  newton =   1 [     138] linear =   119 [     16236] cuts =  0 [   0]
  --> max chng: dpmx=   6.4562E-01 dtmpmx=   7.3123E-02

== TH FLOW =====================================================================
 Step    132 Time=  6.00000E+00 Dt=  5.00000E-02 [y] snes_conv_reason:   11
  newton =   1 [     139] linear =   113 [     16349] cuts =  0 [   0]
  --> max chng: dpmx=   6.4226E-01 dtmpmx=   7.2598E-02

== TH FLOW =====================================================================
 Step    133 Time=  6.05000E+00 Dt=  5.00000E-02 [y] snes_conv_reason:   11
  newton =   1 [     140] linear =   117 [     16466] cuts =  0 [   0]
  --> max chng: dpmx=   6.4716E-01 dtmpmx=   7.2111E-02

== TH FLOW =====================================================================
 Step    134 Time=  6.10000E+00 Dt=  5.00000E-02 [y] snes_conv_reason:   11
  newton =   1 [     141] linear =   115 [     16581] cuts =  0 [   0]
  --> max chng: dpmx=   6.5189E-01 dtmpmx=   7.1649E-02

== TH FLOW =====================================================================
 Step    135 Time=  6.15000E+00 Dt=  5.00000E-02 [y] snes_conv_reason:   11
  newton =   1 [     142] linear =   117 [     16698] cuts =  0 [   0]
  --> max chng: dpmx=   6.5646E-01 dtmpmx=   7.1184E-02

== TH FLOW =====================================================================
 Step    136 Time=  6.20000E+00 Dt=  5.00000E-02 [y] snes_conv_reason:   11
  newton =   1 [     143] linear =   116 [     16814] cuts =  0 [   0]
  --> max chng: dpmx=   6.6093E-01 dtmpmx=   7.0716E-02

== TH FLOW =====================================================================
 Step    137 Time=  6.25000E+00 Dt=  5.00000E-02 [y] snes_conv_reason:   11
  newton =   1 [     144] linear =   117 [     16931] cuts =  0 [   0]
  --> max chng: dpmx=   6.6599E-01 dtmpmx=   7.0247E-02

== TH FLOW =====================================================================
 Step    138 Time=  6.30000E+00 Dt=  5.00000E-02 [y] snes_conv_reason:   11
  newton =   1 [     145] linear =   121 [     17052] cuts =  0 [   0]
  --> max chng: dpmx=   6.7072E-01 dtmpmx=   6.9776E-02

== TH FLOW =====================================================================
 Step    139 Time=  6.35000E+00 Dt=  5.00000E-02 [y] snes_conv_reason:   11
  newton =   1 [     146] linear =   121 [     17173] cuts =  0 [   0]
  --> max chng: dpmx=   6.7543E-01 dtmpmx=   6.9303E-02

== TH FLOW =====================================================================
 Step    140 Time=  6.40000E+00 Dt=  5.00000E-02 [y] snes_conv_reason:   11
  newton =   1 [     147] linear =   120 [     17293] cuts =  0 [   0]
  --> max chng: dpmx=   6.8015E-01 dtmpmx=   6.8844E-02

== TH FLOW =====================================================================
 Step    141 Time=  6.45000E+00 Dt=  5.00000E-02 [y] snes_conv_reason:   11
  newton =   1 [     148] linear =   115 [     17408] cuts =  0 [   0]
  --> max chng: dpmx=   6.8475E-01 dtmpmx=   6.8428E-02

== TH FLOW =====================================================================
 Step    142 Time=  6.50000E+00 Dt=  5.00000E-02 [y] snes_conv_reason:   11
  newton =   1 [     149] linear =   114 [     17522] cuts =  0 [   0]
  --> max chng: dpmx=   6.8970E-01 dtmpmx=   6.8008E-02

== TH FLOW =====================================================================
 Step    143 Time=  6.55000E+00 Dt=  5.00000E-02 [y] snes_conv_reason:   11
  newton =   1 [     150] linear =   123 [     17645] cuts =  0 [   0]
  --> max chng: dpmx=   6.9448E-01 dtmpmx=   6.7586E-02

== TH FLOW =====================================================================
 Step    144 Time=  6.60000E+00 Dt=  5.00000E-02 [y] snes_conv_reason:   11
  newton =   1 [     151] linear =   115 [     17760] cuts =  0 [   0]
  --> max chng: dpmx=   6.9916E-01 dtmpmx=   6.7162E-02

== TH FLOW =====================================================================
 Step    145 Time=  6.65000E+00 Dt=  5.00000E-02 [y] snes_conv_reason:   11
  newton =   1 [     152] linear =   117 [     17877] cuts =  0 [   0]
  --> max chng: dpmx=   7.0390E-01 dtmpmx=   6.6736E-02

== TH FLOW =====================================================================
 Step    146 Time=  6.70000E+00 Dt=  5.00000E-02 [y] snes_conv_reason:   11
  newton =   1 [     153] linear =   112 [     17989] cuts =  0 [   0]
  --> max chng: dpmx=   7.0876E-01 dtmpmx=   6.6308E-02

== TH FLOW =====================================================================
 Step    147 Time=  6.75000E+00 Dt=  5.00000E-02 [y] snes_conv_reason:   11
  newton =   1 [     154] linear =   117 [     18106] cuts =  0 [   0]
  --> max chng: dpmx=   7.1360E-01 dtmpmx=   6.5878E-02

== TH FLOW =====================================================================
 Step    148 Time=  6.80000E+00 Dt=  5.00000E-02 [y] snes_conv_reason:   11
  newton =   1 [     155] linear =   119 [     18225] cuts =  0 [   0]
  --> max chng: dpmx=   7.1839E-01 dtmpmx=   6.5497E-02

== TH FLOW =====================================================================
 Step    149 Time=  6.85000E+00 Dt=  5.00000E-02 [y] snes_conv_reason:   11
  newton =   1 [     156] linear =   119 [     18344] cuts =  0 [   0]
  --> max chng: dpmx=   7.2314E-01 dtmpmx=   6.5117E-02

== TH FLOW =====================================================================
 Step    150 Time=  6.90000E+00 Dt=  5.00000E-02 [y] snes_conv_reason:   11
  newton =   1 [     157] linear =   117 [     18461] cuts =  0 [   0]
  --> max chng: dpmx=   7.2791E-01 dtmpmx=   6.4734E-02

== TH FLOW =====================================================================
 Step    151 Time=  6.95000E+00 Dt=  5.00000E-02 [y] snes_conv_reason:   11
  newton =   1 [     158] linear =   120 [     18581] cuts =  0 [   0]
  --> max chng: dpmx=   7.3279E-01 dtmpmx=   6.4349E-02

== TH FLOW =====================================================================
 Step    152 Time=  7.00000E+00 Dt=  5.00000E-02 [y] snes_conv_reason:   11
  newton =   1 [     159] linear =   126 [     18707] cuts =  0 [   0]
  --> max chng: dpmx=   7.3765E-01 dtmpmx=   6.3961E-02

== TH FLOW =====================================================================
 Step    153 Time=  7.05000E+00 Dt=  5.00000E-02 [y] snes_conv_reason:   11
  newton =   1 [     160] linear =   124 [     18831] cuts =  0 [   0]
  --> max chng: dpmx=   7.4246E-01 dtmpmx=   6.3572E-02

== TH FLOW =====================================================================
 Step    154 Time=  7.10000E+00 Dt=  5.00000E-02 [y] snes_conv_reason:   11
  newton =   1 [     161] linear =   121 [     18952] cuts =  0 [   0]
  --> max chng: dpmx=   7.4722E-01 dtmpmx=   6.3181E-02

== TH FLOW =====================================================================
 Step    155 Time=  7.15000E+00 Dt=  5.00000E-02 [y] snes_conv_reason:   11
  newton =   1 [     162] linear =   116 [     19068] cuts =  0 [   0]
  --> max chng: dpmx=   7.5202E-01 dtmpmx=   6.2817E-02

== TH FLOW =====================================================================
 Step    156 Time=  7.20000E+00 Dt=  5.00000E-02 [y] snes_conv_reason:   11
  newton =   1 [     163] linear =   117 [     19185] cuts =  0 [   0]
  --> max chng: dpmx=   7.5708E-01 dtmpmx=   6.2471E-02

== TH FLOW =====================================================================
 Step    157 Time=  7.25000E+00 Dt=  5.00000E-02 [y] snes_conv_reason:   11
  newton =   1 [     164] linear =   120 [     19305] cuts =  0 [   0]
  --> max chng: dpmx=   7.6189E-01 dtmpmx=   6.2122E-02

== TH FLOW =====================================================================
 Step    158 Time=  7.30000E+00 Dt=  5.00000E-02 [y] snes_conv_reason:   11
  newton =   1 [     165] linear =   119 [     19424] cuts =  0 [   0]
  --> max chng: dpmx=   7.6678E-01 dtmpmx=   6.1771E-02

== TH FLOW =====================================================================
 Step    159 Time=  7.35000E+00 Dt=  5.00000E-02 [y] snes_conv_reason:   11
  newton =   1 [     166] linear =   117 [     19541] cuts =  0 [   0]
  --> max chng: dpmx=   7.7132E-01 dtmpmx=   6.1418E-02

== TH FLOW =====================================================================
 Step    160 Time=  7.40000E+00 Dt=  5.00000E-02 [y] snes_conv_reason:   11
  newton =   1 [     167] linear =   121 [     19662] cuts =  0 [   0]
  --> max chng: dpmx=   7.7635E-01 dtmpmx=   6.1062E-02

== TH FLOW =====================================================================
 Step    161 Time=  7.45000E+00 Dt=  5.00000E-02 [y] snes_conv_reason:   11
  newton =   1 [     168] linear =   121 [     19783] cuts =  0 [   0]
  --> max chng: dpmx=   7.8132E-01 dtmpmx=   6.0705E-02

== TH FLOW =====================================================================
 Step    162 Time=  7.50000E+00 Dt=  5.00000E-02 [y] snes_conv_reason:   11
  newton =   1 [     169] linear =   120 [     19903] cuts =  0 [   0]
  --> max chng: dpmx=   7.8630E-01 dtmpmx=   6.0357E-02

== TH FLOW =====================================================================
 Step    163 Time=  7.55000E+00 Dt=  5.00000E-02 [y] snes_conv_reason:   11
  newton =   1 [     170] linear =   113 [     20016] cuts =  0 [   0]
  --> max chng: dpmx=   7.9092E-01 dtmpmx=   6.0041E-02

== TH FLOW =====================================================================
 Step    164 Time=  7.60000E+00 Dt=  5.00000E-02 [y] snes_conv_reason:   11
  newton =   1 [     171] linear =   118 [     20134] cuts =  0 [   0]
  --> max chng: dpmx=   7.9586E-01 dtmpmx=   5.9722E-02

== TH FLOW =====================================================================
 Step    165 Time=  7.65000E+00 Dt=  5.00000E-02 [y] snes_conv_reason:   11
  newton =   1 [     172] linear =   123 [     20257] cuts =  0 [   0]
  --> max chng: dpmx=   8.0082E-01 dtmpmx=   5.9400E-02

== TH FLOW =====================================================================
 Step    166 Time=  7.70000E+00 Dt=  5.00000E-02 [y] snes_conv_reason:   11
  newton =   1 [     173] linear =   118 [     20375] cuts =  0 [   0]
  --> max chng: dpmx=   8.0581E-01 dtmpmx=   5.9076E-02

== TH FLOW =====================================================================
 Step    167 Time=  7.75000E+00 Dt=  5.00000E-02 [y] snes_conv_reason:   11
  newton =   1 [     174] linear =   119 [     20494] cuts =  0 [   0]
  --> max chng: dpmx=   8.1056E-01 dtmpmx=   5.8751E-02

== TH FLOW =====================================================================
 Step    168 Time=  7.80000E+00 Dt=  5.00000E-02 [y] snes_conv_reason:   11
  newton =   1 [     175] linear =   115 [     20609] cuts =  0 [   0]
  --> max chng: dpmx=   8.1548E-01 dtmpmx=   5.8423E-02

== TH FLOW =====================================================================
 Step    169 Time=  7.85000E+00 Dt=  5.00000E-02 [y] snes_conv_reason:   11
  newton =   1 [     176] linear =   110 [     20719] cuts =  0 [   0]
  --> max chng: dpmx=   8.2045E-01 dtmpmx=   5.8094E-02

== TH FLOW =====================================================================
 Step    170 Time=  7.90000E+00 Dt=  5.00000E-02 [y] snes_conv_reason:   11
  newton =   1 [     177] linear =   117 [     20836] cuts =  0 [   0]
  --> max chng: dpmx=   8.2541E-01 dtmpmx=   5.7799E-02

== TH FLOW =====================================================================
 Step    171 Time=  7.95000E+00 Dt=  5.00000E-02 [y] snes_conv_reason:   11
  newton =   1 [     178] linear =   119 [     20955] cuts =  0 [   0]
  --> max chng: dpmx=   8.3025E-01 dtmpmx=   5.7506E-02

== TH FLOW =====================================================================
 Step    172 Time=  8.00000E+00 Dt=  5.00000E-02 [y] snes_conv_reason:   11
  newton =   1 [     179] linear =   118 [     21073] cuts =  0 [   0]
  --> max chng: dpmx=   8.3536E-01 dtmpmx=   5.7211E-02

== TH FLOW =====================================================================
 Step    173 Time=  8.05000E+00 Dt=  5.00000E-02 [y] snes_conv_reason:   11
  newton =   1 [     180] linear =   116 [     21189] cuts =  0 [   0]
  --> max chng: dpmx=   8.4010E-01 dtmpmx=   5.6913E-02

== TH FLOW =====================================================================
 Step    174 Time=  8.10000E+00 Dt=  5.00000E-02 [y] snes_conv_reason:   11
  newton =   1 [     181] linear =   118 [     21307] cuts =  0 [   0]
  --> max chng: dpmx=   8.4486E-01 dtmpmx=   5.6614E-02

== TH FLOW =====================================================================
 Step    175 Time=  8.15000E+00 Dt=  5.00000E-02 [y] snes_conv_reason:   11
  newton =   1 [     182] linear =   110 [     21417] cuts =  0 [   0]
  --> max chng: dpmx=   8.4997E-01 dtmpmx=   5.6312E-02

== TH FLOW =====================================================================
 Step    176 Time=  8.20000E+00 Dt=  5.00000E-02 [y] snes_conv_reason:   11
  newton =   1 [     183] linear =   116 [     21533] cuts =  0 [   0]
  --> max chng: dpmx=   8.5522E-01 dtmpmx=   5.6009E-02

== TH FLOW =====================================================================
 Step    177 Time=  8.25000E+00 Dt=  5.00000E-02 [y] snes_conv_reason:   11
  newton =   1 [     184] linear =   114 [     21647] cuts =  0 [   0]
  --> max chng: dpmx=   8.5965E-01 dtmpmx=   5.5725E-02

== TH FLOW =====================================================================
 Step    178 Time=  8.30000E+00 Dt=  5.00000E-02 [y] snes_conv_reason:   11
  newton =   1 [     185] linear =   118 [     21765] cuts =  0 [   0]
  --> max chng: dpmx=   8.6496E-01 dtmpmx=   5.5455E-02

== TH FLOW =====================================================================
 Step    179 Time=  8.35000E+00 Dt=  5.00000E-02 [y] snes_conv_reason:   11
  newton =   1 [     186] linear =   118 [     21883] cuts =  0 [   0]
  --> max chng: dpmx=   8.6977E-01 dtmpmx=   5.5183E-02

== TH FLOW =====================================================================
 Step    180 Time=  8.40000E+00 Dt=  5.00000E-02 [y] snes_conv_reason:   11
  newton =   1 [     187] linear =   116 [     21999] cuts =  0 [   0]
  --> max chng: dpmx=   8.7480E-01 dtmpmx=   5.4909E-02

== TH FLOW =====================================================================
 Step    181 Time=  8.45000E+00 Dt=  5.00000E-02 [y] snes_conv_reason:   11
  newton =   1 [     188] linear =   118 [     22117] cuts =  0 [   0]
  --> max chng: dpmx=   8.7974E-01 dtmpmx=   5.4632E-02

== TH FLOW =====================================================================
 Step    182 Time=  8.50000E+00 Dt=  5.00000E-02 [y] snes_conv_reason:   11
  newton =   1 [     189] linear =   119 [     22236] cuts =  0 [   0]
  --> max chng: dpmx=   8.8474E-01 dtmpmx=   5.4354E-02

== TH FLOW =====================================================================
 Step    183 Time=  8.55000E+00 Dt=  5.00000E-02 [y] snes_conv_reason:   11
  newton =   1 [     190] linear =   116 [     22352] cuts =  0 [   0]
  --> max chng: dpmx=   8.8970E-01 dtmpmx=   5.4074E-02

== TH FLOW =====================================================================
 Step    184 Time=  8.60000E+00 Dt=  5.00000E-02 [y] snes_conv_reason:   11
  newton =   1 [     191] linear =   115 [     22467] cuts =  0 [   0]
  --> max chng: dpmx=   8.9449E-01 dtmpmx=   5.3799E-02

== TH FLOW =====================================================================
 Step    185 Time=  8.65000E+00 Dt=  5.00000E-02 [y] snes_conv_reason:   11
  newton =   1 [     192] linear =   115 [     22582] cuts =  0 [   0]
  --> max chng: dpmx=   8.9965E-01 dtmpmx=   5.3549E-02

== TH FLOW =====================================================================
 Step    186 Time=  8.70000E+00 Dt=  5.00000E-02 [y] snes_conv_reason:   11
  newton =   1 [     193] linear =   113 [     22695] cuts =  0 [   0]
  --> max chng: dpmx=   9.0465E-01 dtmpmx=   5.3298E-02

== TH FLOW =====================================================================
 Step    187 Time=  8.75000E+00 Dt=  5.00000E-02 [y] snes_conv_reason:   11
  newton =   1 [     194] linear =   116 [     22811] cuts =  0 [   0]
  --> max chng: dpmx=   9.0950E-01 dtmpmx=   5.3044E-02

== TH FLOW =====================================================================
 Step    188 Time=  8.80000E+00 Dt=  5.00000E-02 [y] snes_conv_reason:   11
  newton =   1 [     195] linear =   117 [     22928] cuts =  0 [   0]
  --> max chng: dpmx=   9.1475E-01 dtmpmx=   5.2789E-02

== TH FLOW =====================================================================
 Step    189 Time=  8.85000E+00 Dt=  5.00000E-02 [y] snes_conv_reason:   11
  newton =   1 [     196] linear =   119 [     23047] cuts =  0 [   0]
  --> max chng: dpmx=   9.1946E-01 dtmpmx=   5.2531E-02

== TH FLOW =====================================================================
 Step    190 Time=  8.90000E+00 Dt=  5.00000E-02 [y] snes_conv_reason:   11
  newton =   1 [     197] linear =   113 [     23160] cuts =  0 [   0]
  --> max chng: dpmx=   9.2472E-01 dtmpmx=   5.2272E-02

== TH FLOW =====================================================================
 Step    191 Time=  8.95000E+00 Dt=  5.00000E-02 [y] snes_conv_reason:   11
  newton =   1 [     198] linear =   111 [     23271] cuts =  0 [   0]
  --> max chng: dpmx=   9.2945E-01 dtmpmx=   5.2011E-02

== TH FLOW =====================================================================
 Step    192 Time=  9.00000E+00 Dt=  5.00000E-02 [y] snes_conv_reason:   11
  newton =   1 [     199] linear =   112 [     23383] cuts =  0 [   0]
  --> max chng: dpmx=   9.3478E-01 dtmpmx=   5.1774E-02

== TH FLOW =====================================================================
 Step    193 Time=  9.05000E+00 Dt=  5.00000E-02 [y] snes_conv_reason:   11
  newton =   1 [     200] linear =   113 [     23496] cuts =  0 [   0]
  --> max chng: dpmx=   9.3929E-01 dtmpmx=   5.1541E-02

== TH FLOW =====================================================================
 Step    194 Time=  9.10000E+00 Dt=  5.00000E-02 [y] snes_conv_reason:   11
  newton =   1 [     201] linear =   114 [     23610] cuts =  0 [   0]
  --> max chng: dpmx=   9.4458E-01 dtmpmx=   5.1306E-02

== TH FLOW =====================================================================
 Step    195 Time=  9.15000E+00 Dt=  5.00000E-02 [y] snes_conv_reason:   11
  newton =   1 [     202] linear =   115 [     23725] cuts =  0 [   0]
  --> max chng: dpmx=   9.4981E-01 dtmpmx=   5.1069E-02

== TH FLOW =====================================================================
 Step    196 Time=  9.20000E+00 Dt=  5.00000E-02 [y] snes_conv_reason:   11
  newton =   1 [     203] linear =   114 [     23839] cuts =  0 [   0]
  --> max chng: dpmx=   9.5468E-01 dtmpmx=   5.0830E-02

== TH FLOW =====================================================================
 Step    197 Time=  9.25000E+00 Dt=  5.00000E-02 [y] snes_conv_reason:   11
  newton =   1 [     204] linear =   121 [     23960] cuts =  0 [   0]
  --> max chng: dpmx=   9.5963E-01 dtmpmx=   5.0590E-02

== TH FLOW =====================================================================
 Step    198 Time=  9.30000E+00 Dt=  5.00000E-02 [y] snes_conv_reason:   11
  newton =   1 [     205] linear =   111 [     24071] cuts =  0 [   0]
  --> max chng: dpmx=   9.6464E-01 dtmpmx=   5.0347E-02

== TH FLOW =====================================================================
 Step    199 Time=  9.35000E+00 Dt=  5.00000E-02 [y] snes_conv_reason:   11
  newton =   1 [     206] linear =   116 [     24187] cuts =  0 [   0]
  --> max chng: dpmx=   9.6987E-01 dtmpmx=   5.0116E-02

== TH FLOW =====================================================================
 Step    200 Time=  9.40000E+00 Dt=  5.00000E-02 [y] snes_conv_reason:   11
  newton =   1 [     207] linear =   119 [     24306] cuts =  0 [   0]
  --> max chng: dpmx=   9.7464E-01 dtmpmx=   4.9900E-02

== TH FLOW =====================================================================
 Step    201 Time=  9.45000E+00 Dt=  5.00000E-02 [y] snes_conv_reason:   11
  newton =   1 [     208] linear =   117 [     24423] cuts =  0 [   0]
  --> max chng: dpmx=   9.7992E-01 dtmpmx=   4.9682E-02

== TH FLOW =====================================================================
 Step    202 Time=  9.50000E+00 Dt=  5.00000E-02 [y] snes_conv_reason:   11
  newton =   1 [     209] linear =   119 [     24542] cuts =  0 [   0]
  --> max chng: dpmx=   9.8474E-01 dtmpmx=   4.9461E-02

== TH FLOW =====================================================================
 Step    203 Time=  9.55000E+00 Dt=  5.00000E-02 [y] snes_conv_reason:   11
  newton =   1 [     210] linear =   114 [     24656] cuts =  0 [   0]
  --> max chng: dpmx=   9.8980E-01 dtmpmx=   4.9239E-02

== TH FLOW =====================================================================
 Step    204 Time=  9.60000E+00 Dt=  5.00000E-02 [y] snes_conv_reason:   11
  newton =   1 [     211] linear =   114 [     24770] cuts =  0 [   0]
  --> max chng: dpmx=   9.9486E-01 dtmpmx=   4.9015E-02

== TH FLOW =====================================================================
 Step    205 Time=  9.65000E+00 Dt=  5.00000E-02 [y] snes_conv_reason:   11
  newton =   1 [     212] linear =   113 [     24883] cuts =  0 [   0]
  --> max chng: dpmx=   9.9996E-01 dtmpmx=   4.8789E-02

== TH FLOW =====================================================================
 Step    206 Time=  9.70000E+00 Dt=  5.00000E-02 [y] snes_conv_reason:    3
  newton =   1 [     213] linear =   117 [     25000] cuts =  0 [   0]
  --> max chng: dpmx=   1.0051E+00 dtmpmx=   4.8564E-02

== TH FLOW =====================================================================
 Step    207 Time=  9.75000E+00 Dt=  5.00000E-02 [y] snes_conv_reason:    3
  newton =   1 [     214] linear =   116 [     25116] cuts =  0 [   0]
  --> max chng: dpmx=   1.0101E+00 dtmpmx=   4.8362E-02

== TH FLOW =====================================================================
 Step    208 Time=  9.80000E+00 Dt=  5.00000E-02 [y] snes_conv_reason:    3
  newton =   1 [     215] linear =   112 [     25228] cuts =  0 [   0]
  --> max chng: dpmx=   1.0147E+00 dtmpmx=   4.8159E-02

== TH FLOW =====================================================================
 Step    209 Time=  9.85000E+00 Dt=  5.00000E-02 [y] snes_conv_reason:    3
  newton =   1 [     216] linear =   110 [     25338] cuts =  0 [   0]
  --> max chng: dpmx=   1.0200E+00 dtmpmx=   4.7954E-02

== TH FLOW =====================================================================
 Step    210 Time=  9.90000E+00 Dt=  5.00000E-02 [y] snes_conv_reason:    3
  newton =   1 [     217] linear =   112 [     25450] cuts =  0 [   0]
  --> max chng: dpmx=   1.0252E+00 dtmpmx=   4.7747E-02

== TH FLOW =====================================================================
 Step    211 Time=  9.95000E+00 Dt=  5.00000E-02 [y] snes_conv_reason:    3
  newton =   1 [     218] linear =   114 [     25564] cuts =  0 [   0]
  --> max chng: dpmx=   1.0301E+00 dtmpmx=   4.7538E-02

== TH FLOW =====================================================================
 Step    212 Time=  1.00000E+01 Dt=  5.00000E-02 [y] snes_conv_reason:    3
  newton =   1 [     219] linear =   117 [     25681] cuts =  0 [   0]
  --> max chng: dpmx=   1.0351E+00 dtmpmx=   4.7327E-02

== TH FLOW =====================================================================
 Step    213 Time=  1.00500E+01 Dt=  5.00000E-02 [y] snes_conv_reason:    3
  newton =   1 [     220] linear =   112 [     25793] cuts =  0 [   0]
  --> max chng: dpmx=   1.0401E+00 dtmpmx=   4.7115E-02

== TH FLOW =====================================================================
 Step    214 Time=  1.01000E+01 Dt=  5.00000E-02 [y] snes_conv_reason:    3
  newton =   1 [     221] linear =   110 [     25903] cuts =  0 [   0]
  --> max chng: dpmx=   1.0452E+00 dtmpmx=   4.6919E-02

== TH FLOW =====================================================================
 Step    215 Time=  1.01500E+01 Dt=  5.00000E-02 [y] snes_conv_reason:    3
  newton =   1 [     222] linear =   116 [     26019] cuts =  0 [   0]
  --> max chng: dpmx=   1.0503E+00 dtmpmx=   4.6729E-02

== TH FLOW =====================================================================
 Step    216 Time=  1.02000E+01 Dt=  5.00000E-02 [y] snes_conv_reason:    3
  newton =   1 [     223] linear =   109 [     26128] cuts =  0 [   0]
  --> max chng: dpmx=   1.0549E+00 dtmpmx=   4.6538E-02

== TH FLOW =====================================================================
 Step    217 Time=  1.02500E+01 Dt=  5.00000E-02 [y] snes_conv_reason:    3
  newton =   1 [     224] linear =   112 [     26240] cuts =  0 [   0]
  --> max chng: dpmx=   1.0602E+00 dtmpmx=   4.6344E-02

== TH FLOW =====================================================================
 Step    218 Time=  1.03000E+01 Dt=  5.00000E-02 [y] snes_conv_reason:    3
  newton =   1 [     225] linear =   112 [     26352] cuts =  0 [   0]
  --> max chng: dpmx=   1.0648E+00 dtmpmx=   4.6149E-02

== TH FLOW =====================================================================
 Step    219 Time=  1.03500E+01 Dt=  5.00000E-02 [y] snes_conv_reason:    3
  newton =   1 [     226] linear =   113 [     26465] cuts =  0 [   0]
  --> max chng: dpmx=   1.0697E+00 dtmpmx=   4.5952E-02

== TH FLOW =====================================================================
 Step    220 Time=  1.04000E+01 Dt=  5.00000E-02 [y] snes_conv_reason:    3
  newton =   1 [     227] linear =   114 [     26579] cuts =  0 [   0]
  --> max chng: dpmx=   1.0749E+00 dtmpmx=   4.5754E-02

== TH FLOW =====================================================================
 Step    221 Time=  1.04250E+01 Dt=  2.50000E-02 [y] snes_conv_reason:   11
  newton =   1 [     228] linear =   117 [     26696] cuts =  1 [   1]
  --> max chng: dpmx=   5.3833E-01 dtmpmx=   2.2845E-02

== TH FLOW =====================================================================
 Step    222 Time=  1.04500E+01 Dt=  2.50000E-02 [y] snes_conv_reason:   11
  newton =   1 [     229] linear =   112 [     26808] cuts =  0 [   1]
  --> max chng: dpmx=   5.3985E-01 dtmpmx=   2.2797E-02

== TH FLOW =====================================================================
 Step    223 Time=  1.04750E+01 Dt=  2.50000E-02 [y] snes_conv_reason:   11
  newton =   1 [     230] linear =   112 [     26920] cuts =  0 [   1]
  --> max chng: dpmx=   5.4116E-01 dtmpmx=   2.2767E-02

== TH FLOW =====================================================================
 Step    224 Time=  1.05000E+01 Dt=  2.50000E-02 [y] snes_conv_reason:   11
  newton =   1 [     231] linear =   112 [     27032] cuts =  0 [   1]
  --> max chng: dpmx=   5.4230E-01 dtmpmx=   2.2724E-02

== TH FLOW =====================================================================
 Step    225 Time=  1.05250E+01 Dt=  2.50000E-02 [y] snes_conv_reason:   11
  newton =   1 [     232] linear =   112 [     27144] cuts =  0 [   1]
  --> max chng: dpmx=   5.4354E-01 dtmpmx=   2.2688E-02

== TH FLOW =====================================================================
 Step    226 Time=  1.05500E+01 Dt=  2.50000E-02 [y] snes_conv_reason:   11
  newton =   1 [     233] linear =   112 [     27256] cuts =  0 [   1]
  --> max chng: dpmx=   5.4479E-01 dtmpmx=   2.2650E-02

== TH FLOW =====================================================================
 Step    227 Time=  1.06000E+01 Dt=  5.00000E-02 [y] snes_conv_reason:    3
  newton =   1 [     234] linear =   112 [     27368] cuts =  0 [   1]
  --> max chng: dpmx=   1.0945E+00 dtmpmx=   4.5119E-02

== TH FLOW =====================================================================
 Step    228 Time=  1.06500E+01 Dt=  5.00000E-02 [y] snes_conv_reason:    3
  newton =   1 [     235] linear =   117 [     27485] cuts =  0 [   1]
  --> max chng: dpmx=   1.0990E+00 dtmpmx=   4.4936E-02

== TH FLOW =====================================================================
 Step    229 Time=  1.07000E+01 Dt=  5.00000E-02 [y] snes_conv_reason:    3
  newton =   1 [     236] linear =   114 [     27599] cuts =  0 [   1]
  --> max chng: dpmx=   1.1036E+00 dtmpmx=   4.4751E-02

== TH FLOW =====================================================================
 Step    230 Time=  1.07500E+01 Dt=  5.00000E-02 [y] snes_conv_reason:    3
  newton =   1 [     237] linear =   114 [     27713] cuts =  0 [   1]
  --> max chng: dpmx=   1.1081E+00 dtmpmx=   4.4564E-02

== TH FLOW =====================================================================
 Step    231 Time=  1.08000E+01 Dt=  5.00000E-02 [y] snes_conv_reason:    3
  newton =   1 [     238] linear =   109 [     27822] cuts =  0 [   1]
  --> max chng: dpmx=   1.1124E+00 dtmpmx=   4.4376E-02

== TH FLOW =====================================================================
 Step    232 Time=  1.08500E+01 Dt=  5.00000E-02 [y] snes_conv_reason:    3
  newton =   1 [     239] linear =   108 [     27930] cuts =  0 [   1]
  --> max chng: dpmx=   1.1169E+00 dtmpmx=   4.4205E-02

== TH FLOW =====================================================================
 Step    233 Time=  1.09000E+01 Dt=  5.00000E-02 [y] snes_conv_reason:    3
  newton =   1 [     240] linear =   116 [     28046] cuts =  0 [   1]
  --> max chng: dpmx=   1.1211E+00 dtmpmx=   4.4037E-02

== TH FLOW =====================================================================
 Step    234 Time=  1.09500E+01 Dt=  5.00000E-02 [y] snes_conv_reason:    3
  newton =   1 [     241] linear =   113 [     28159] cuts =  0 [   1]
  --> max chng: dpmx=   1.1254E+00 dtmpmx=   4.3866E-02

== TH FLOW =====================================================================
 Step    235 Time=  1.10000E+01 Dt=  5.00000E-02 [y] snes_conv_reason:    3
  newton =   1 [     242] linear =   113 [     28272] cuts =  0 [   1]
  --> max chng: dpmx=   1.1290E+00 dtmpmx=   4.3694E-02

== TH FLOW =====================================================================
 Step    236 Time=  1.10500E+01 Dt=  5.00000E-02 [y] snes_conv_reason:    3
  newton =   1 [     243] linear =   117 [     28389] cuts =  0 [   1]
  --> max chng: dpmx=   1.1330E+00 dtmpmx=   4.3521E-02

== TH FLOW =====================================================================
 Step    237 Time=  1.11000E+01 Dt=  5.00000E-02 [y] snes_conv_reason:    3
  newton =   1 [     244] linear =   116 [     28505] cuts =  0 [   1]
  --> max chng: dpmx=   1.1368E+00 dtmpmx=   4.3346E-02

== TH FLOW =====================================================================
 Step    238 Time=  1.11500E+01 Dt=  5.00000E-02 [y] snes_conv_reason:    3
  newton =   1 [     245] linear =   113 [     28618] cuts =  0 [   1]
  --> max chng: dpmx=   1.1400E+00 dtmpmx=   4.3169E-02

== TH FLOW =====================================================================
 Step    239 Time=  1.12000E+01 Dt=  5.00000E-02 [y] snes_conv_reason:    3
  newton =   1 [     246] linear =   115 [     28733] cuts =  0 [   1]
  --> max chng: dpmx=   1.1435E+00 dtmpmx=   4.3000E-02

== TH FLOW =====================================================================
 Step    240 Time=  1.12500E+01 Dt=  5.00000E-02 [y] snes_conv_reason:    3
  newton =   1 [     247] linear =   117 [     28850] cuts =  0 [   1]
  --> max chng: dpmx=   1.1464E+00 dtmpmx=   4.2842E-02

== TH FLOW =====================================================================
 Step    241 Time=  1.13000E+01 Dt=  5.00000E-02 [y] snes_conv_reason:    3
  newton =   1 [     248] linear =   115 [     28965] cuts =  0 [   1]
  --> max chng: dpmx=   1.1493E+00 dtmpmx=   4.2682E-02

== TH FLOW =====================================================================
 Step    242 Time=  1.13500E+01 Dt=  5.00000E-02 [y] snes_conv_reason:    3
  newton =   1 [     249] linear =   111 [     29076] cuts =  0 [   1]
  --> max chng: dpmx=   1.1519E+00 dtmpmx=   4.2521E-02

== TH FLOW =====================================================================
 Step    243 Time=  1.14000E+01 Dt=  5.00000E-02 [y] snes_conv_reason:    3
  newton =   1 [     250] linear =   110 [     29186] cuts =  0 [   1]
  --> max chng: dpmx=   1.1540E+00 dtmpmx=   4.2358E-02

== TH FLOW =====================================================================
 Step    244 Time=  1.14500E+01 Dt=  5.00000E-02 [y] snes_conv_reason:    3
  newton =   1 [     251] linear =   115 [     29301] cuts =  0 [   1]
  --> max chng: dpmx=   1.1562E+00 dtmpmx=   4.2193E-02

== TH FLOW =====================================================================
 Step    245 Time=  1.15000E+01 Dt=  5.00000E-02 [y] snes_conv_reason:    3
  newton =   1 [     252] linear =   117 [     29418] cuts =  0 [   1]
  --> max chng: dpmx=   1.1576E+00 dtmpmx=   4.2028E-02

== TH FLOW =====================================================================
 Step    246 Time=  1.15500E+01 Dt=  5.00000E-02 [y] snes_conv_reason:    3
  newton =   1 [     253] linear =   113 [     29531] cuts =  0 [   1]
  --> max chng: dpmx=   1.1590E+00 dtmpmx=   4.1860E-02

== TH FLOW =====================================================================
 Step    247 Time=  1.16000E+01 Dt=  5.00000E-02 [y] snes_conv_reason:    3
  newton =   1 [     254] linear =   114 [     29645] cuts =  0 [   1]
  --> max chng: dpmx=   1.1598E+00 dtmpmx=   4.1711E-02

== TH FLOW =====================================================================
 Step    248 Time=  1.16500E+01 Dt=  5.00000E-02 [y] snes_conv_reason:    3
  newton =   1 [     255] linear =   114 [     29759] cuts =  0 [   1]
  --> max chng: dpmx=   1.1603E+00 dtmpmx=   4.1561E-02

== TH FLOW =====================================================================
 Step    249 Time=  1.17000E+01 Dt=  5.00000E-02 [y] snes_conv_reason:    3
  newton =   1 [     256] linear =   115 [     29874] cuts =  0 [   1]
  --> max chng: dpmx=   1.1602E+00 dtmpmx=   4.1409E-02

== TH FLOW =====================================================================
 Step    250 Time=  1.17500E+01 Dt=  5.00000E-02 [y] snes_conv_reason:    3
  newton =   1 [     257] linear =   105 [     29979] cuts =  0 [   1]
  --> max chng: dpmx=   1.1597E+00 dtmpmx=   4.1256E-02

== TH FLOW =====================================================================
 Step    251 Time=  1.18000E+01 Dt=  5.00000E-02 [y] snes_conv_reason:    3
  newton =   1 [     258] linear =   115 [     30094] cuts =  0 [   1]
  --> max chng: dpmx=   1.1588E+00 dtmpmx=   4.1101E-02

== TH FLOW =====================================================================
 Step    252 Time=  1.18500E+01 Dt=  5.00000E-02 [y] snes_conv_reason:    3
  newton =   1 [     259] linear =   112 [     30206] cuts =  0 [   1]
  --> max chng: dpmx=   1.1571E+00 dtmpmx=   4.0945E-02

== TH FLOW =====================================================================
 Step    253 Time=  1.19000E+01 Dt=  5.00000E-02 [y] snes_conv_reason:    3
  newton =   1 [     260] linear =   115 [     30321] cuts =  0 [   1]
  --> max chng: dpmx=   1.1552E+00 dtmpmx=   4.0787E-02

== TH FLOW =====================================================================
 Step    254 Time=  1.19500E+01 Dt=  5.00000E-02 [y] snes_conv_reason:    3
  newton =   1 [     261] linear =   115 [     30436] cuts =  0 [   1]
  --> max chng: dpmx=   1.1526E+00 dtmpmx=   4.0639E-02

== TH FLOW =====================================================================
 Step    255 Time=  1.20000E+01 Dt=  5.00000E-02 [y] snes_conv_reason:    3
  newton =   1 [     262] linear =   116 [     30552] cuts =  0 [   1]
  --> max chng: dpmx=   1.1488E+00 dtmpmx=   4.0498E-02

== TH FLOW =====================================================================
 Step    256 Time=  1.20500E+01 Dt=  5.00000E-02 [y] snes_conv_reason:    3
  newton =   1 [     263] linear =   118 [     30670] cuts =  0 [   1]
  --> max chng: dpmx=   1.1451E+00 dtmpmx=   4.0355E-02

== TH FLOW =====================================================================
 Step    257 Time=  1.21000E+01 Dt=  5.00000E-02 [y] snes_conv_reason:    3
  newton =   1 [     264] linear =   114 [     30784] cuts =  0 [   1]
  --> max chng: dpmx=   1.1405E+00 dtmpmx=   4.0210E-02

[...]
 Step    496 Time=  2.40500E+01 Dt=  5.00000E-02 [y] snes_conv_reason:   11
  newton =   1 [     503] linear =    99 [     57670] cuts =  0 [   1]
  --> max chng: dpmx=   3.6783E-03 dtmpmx=   9.2852E-05

== TH FLOW =====================================================================
 Step    497 Time=  2.41000E+01 Dt=  5.00000E-02 [y] snes_conv_reason:   11
  newton =   1 [     504] linear =   110 [     57780] cuts =  0 [   1]
  --> max chng: dpmx=   3.6199E-03 dtmpmx=   9.2585E-05

== TH FLOW =====================================================================
 Step    498 Time=  2.41500E+01 Dt=  5.00000E-02 [y] snes_conv_reason:   11
  newton =   1 [     505] linear =   110 [     57890] cuts =  0 [   1]
  --> max chng: dpmx=   3.5619E-03 dtmpmx=   9.2295E-05

== TH FLOW =====================================================================
 Step    499 Time=  2.42000E+01 Dt=  5.00000E-02 [y] snes_conv_reason:   11
  newton =   1 [     506] linear =   105 [     57995] cuts =  0 [   1]
  --> max chng: dpmx=   3.5047E-03 dtmpmx=   9.1980E-05

== TH FLOW =====================================================================
 Step    500 Time=  2.42500E+01 Dt=  5.00000E-02 [y] snes_conv_reason:   11
  newton =   1 [     507] linear =   104 [     58099] cuts =  0 [   1]
  --> max chng: dpmx=   3.4454E-03 dtmpmx=   9.1641E-05

== TH FLOW =====================================================================
 Step    501 Time=  2.43000E+01 Dt=  5.00000E-02 [y] snes_conv_reason:   11
  newton =   1 [     508] linear =   104 [     58203] cuts =  0 [   1]
  --> max chng: dpmx=   3.3873E-03 dtmpmx=   9.1277E-05

== TH FLOW =====================================================================
 Step    502 Time=  2.43500E+01 Dt=  5.00000E-02 [y] snes_conv_reason:   11
  newton =   1 [     509] linear =   109 [     58312] cuts =  0 [   1]
  --> max chng: dpmx=   3.3288E-03 dtmpmx=   9.0887E-05

== TH FLOW =====================================================================
 Step    503 Time=  2.44000E+01 Dt=  5.00000E-02 [y] snes_conv_reason:   11
  newton =   1 [     510] linear =   110 [     58422] cuts =  0 [   1]
  --> max chng: dpmx=   3.2702E-03 dtmpmx=   9.0471E-05

== TH FLOW =====================================================================
 Step    504 Time=  2.44500E+01 Dt=  5.00000E-02 [y] snes_conv_reason:   11
  newton =   1 [     511] linear =   109 [     58531] cuts =  0 [   1]
  --> max chng: dpmx=   3.2113E-03 dtmpmx=   9.0029E-05

== TH FLOW =====================================================================
 Step    505 Time=  2.45000E+01 Dt=  5.00000E-02 [y] snes_conv_reason:   11
  newton =   1 [     512] linear =   114 [     58645] cuts =  0 [   1]
  --> max chng: dpmx=   3.1529E-03 dtmpmx=   8.9560E-05

== TH FLOW =====================================================================
 Step    506 Time=  2.45500E+01 Dt=  5.00000E-02 [y] snes_conv_reason:   11
  newton =   1 [     513] linear =   114 [     58759] cuts =  0 [   1]
  --> max chng: dpmx=   3.0938E-03 dtmpmx=   8.9063E-05

== TH FLOW =====================================================================
 Step    507 Time=  2.46000E+01 Dt=  5.00000E-02 [y] snes_conv_reason:   11
  newton =   1 [     514] linear =   102 [     58861] cuts =  0 [   1]
  --> max chng: dpmx=   3.0355E-03 dtmpmx=   8.8538E-05

== TH FLOW =====================================================================
 Step    508 Time=  2.46500E+01 Dt=  5.00000E-02 [y] snes_conv_reason:   11
  newton =   1 [     515] linear =   113 [     58974] cuts =  0 [   1]
  --> max chng: dpmx=   2.9761E-03 dtmpmx=   8.7985E-05

== TH FLOW =====================================================================
 Step    509 Time=  2.47000E+01 Dt=  5.00000E-02 [y] snes_conv_reason:   11
  newton =   1 [     516] linear =   114 [     59088] cuts =  0 [   1]
  --> max chng: dpmx=   2.9168E-03 dtmpmx=   8.7404E-05

== TH FLOW =====================================================================
 Step    510 Time=  2.47500E+01 Dt=  5.00000E-02 [y] snes_conv_reason:   11
  newton =   1 [     517] linear =   107 [     59195] cuts =  0 [   1]
  --> max chng: dpmx=   2.8582E-03 dtmpmx=   8.6795E-05

== TH FLOW =====================================================================
 Step    511 Time=  2.48000E+01 Dt=  5.00000E-02 [y] snes_conv_reason:   11
  newton =   1 [     518] linear =   111 [     59306] cuts =  0 [   1]
  --> max chng: dpmx=   2.8000E-03 dtmpmx=   8.6156E-05

== TH FLOW =====================================================================
 Step    512 Time=  2.48500E+01 Dt=  5.00000E-02 [y] snes_conv_reason:   11
  newton =   1 [     519] linear =   113 [     59419] cuts =  0 [   1]
  --> max chng: dpmx=   2.7414E-03 dtmpmx=   8.5489E-05

== TH FLOW =====================================================================
 Step    513 Time=  2.49000E+01 Dt=  5.00000E-02 [y] snes_conv_reason:   11
  newton =   1 [     520] linear =   115 [     59534] cuts =  0 [   1]
  --> max chng: dpmx=   2.6829E-03 dtmpmx=   8.4793E-05

== TH FLOW =====================================================================
 Step    514 Time=  2.49500E+01 Dt=  5.00000E-02 [y] snes_conv_reason:   11
  newton =   1 [     521] linear =   116 [     59650] cuts =  0 [   1]
  --> max chng: dpmx=   2.6248E-03 dtmpmx=   8.4069E-05

== TH FLOW =====================================================================
 Step    515 Time=  2.50000E+01 Dt=  5.00000E-02 [y] snes_conv_reason:   11
  newton =   1 [     522] linear =   117 [     59767] cuts =  0 [   1]
  --> max chng: dpmx=   2.5668E-03 dtmpmx=   8.3315E-05

== TH FLOW =====================================================================
 Step    516 Time=  2.50500E+01 Dt=  5.00000E-02 [y] snes_conv_reason:   11
  newton =   1 [     523] linear =   111 [     59878] cuts =  0 [   1]
  --> max chng: dpmx=   2.5091E-03 dtmpmx=   8.2533E-05

== TH FLOW =====================================================================
 Step    517 Time=  2.51000E+01 Dt=  5.00000E-02 [y] snes_conv_reason:   11
  newton =   1 [     524] linear =   114 [     59992] cuts =  0 [   1]
  --> max chng: dpmx=   2.4512E-03 dtmpmx=   8.1723E-05

== TH FLOW =====================================================================
 Step    518 Time=  2.51500E+01 Dt=  5.00000E-02 [y] snes_conv_reason:   11
  newton =   1 [     525] linear =   114 [     60106] cuts =  0 [   1]
  --> max chng: dpmx=   2.3940E-03 dtmpmx=   8.0884E-05

== TH FLOW =====================================================================
 Step    519 Time=  2.52000E+01 Dt=  5.00000E-02 [y] snes_conv_reason:   11
  newton =   1 [     526] linear =   112 [     60218] cuts =  0 [   1]
  --> max chng: dpmx=   2.3376E-03 dtmpmx=   8.0018E-05

== TH FLOW =====================================================================
 Step    520 Time=  2.52500E+01 Dt=  5.00000E-02 [y] snes_conv_reason:   11
  newton =   1 [     527] linear =   115 [     60333] cuts =  0 [   1]
  --> max chng: dpmx=   2.2806E-03 dtmpmx=   7.9124E-05

== TH FLOW =====================================================================
 Step    521 Time=  2.53000E+01 Dt=  5.00000E-02 [y] snes_conv_reason:   11
  newton =   1 [     528] linear =   113 [     60446] cuts =  0 [   1]
  --> max chng: dpmx=   2.2246E-03 dtmpmx=   7.8203E-05

== TH FLOW =====================================================================
 Step    522 Time=  2.53500E+01 Dt=  5.00000E-02 [y] snes_conv_reason:   11
  newton =   1 [     529] linear =   112 [     60558] cuts =  0 [   1]
  --> max chng: dpmx=   2.1690E-03 dtmpmx=   7.7256E-05

== TH FLOW =====================================================================
 Step    523 Time=  2.54000E+01 Dt=  5.00000E-02 [y] snes_conv_reason:   11
  newton =   1 [     530] linear =   118 [     60676] cuts =  0 [   1]
  --> max chng: dpmx=   2.1135E-03 dtmpmx=   7.6282E-05

== TH FLOW =====================================================================
 Step    524 Time=  2.54500E+01 Dt=  5.00000E-02 [y] snes_conv_reason:   11
  newton =   1 [     531] linear =   111 [     60787] cuts =  0 [   1]
  --> max chng: dpmx=   2.0584E-03 dtmpmx=   7.5284E-05

== TH FLOW =====================================================================
 Step    525 Time=  2.55000E+01 Dt=  5.00000E-02 [y] snes_conv_reason:   11
  newton =   1 [     532] linear =   116 [     60903] cuts =  0 [   1]
  --> max chng: dpmx=   2.0043E-03 dtmpmx=   7.4261E-05

== TH FLOW =====================================================================
 Step    526 Time=  2.55500E+01 Dt=  5.00000E-02 [y] snes_conv_reason:   11
  newton =   1 [     533] linear =   116 [     61019] cuts =  0 [   1]
  --> max chng: dpmx=   1.9498E-03 dtmpmx=   7.3214E-05

== TH FLOW =====================================================================
 Step    527 Time=  2.56000E+01 Dt=  5.00000E-02 [y] snes_conv_reason:   11
  newton =   1 [     534] linear =   116 [     61135] cuts =  0 [   1]
  --> max chng: dpmx=   1.8969E-03 dtmpmx=   7.2144E-05

== TH FLOW =====================================================================
 Step    528 Time=  2.56500E+01 Dt=  5.00000E-02 [y] snes_conv_reason:   11
  newton =   1 [     535] linear =   117 [     61252] cuts =  0 [   1]
  --> max chng: dpmx=   1.8439E-03 dtmpmx=   7.1052E-05

== TH FLOW =====================================================================
 Step    529 Time=  2.57000E+01 Dt=  5.00000E-02 [y] snes_conv_reason:   11
  newton =   1 [     536] linear =   115 [     61367] cuts =  0 [   1]
  --> max chng: dpmx=   1.7919E-03 dtmpmx=   6.9939E-05

== TH FLOW =====================================================================
 Step    530 Time=  2.57500E+01 Dt=  5.00000E-02 [y] snes_conv_reason:   11
  newton =   1 [     537] linear =   120 [     61487] cuts =  0 [   1]
  --> max chng: dpmx=   1.7401E-03 dtmpmx=   6.8806E-05

== TH FLOW =====================================================================
 Step    531 Time=  2.58000E+01 Dt=  5.00000E-02 [y] snes_conv_reason:   11
  newton =   1 [     538] linear =   120 [     61607] cuts =  0 [   1]
  --> max chng: dpmx=   1.6891E-03 dtmpmx=   6.7653E-05

== TH FLOW =====================================================================
 Step    532 Time=  2.58500E+01 Dt=  5.00000E-02 [y] snes_conv_reason:   11
  newton =   1 [     539] linear =   120 [     61727] cuts =  0 [   1]
  --> max chng: dpmx=   1.6387E-03 dtmpmx=   6.6483E-05

== TH FLOW =====================================================================
 Step    533 Time=  2.59000E+01 Dt=  5.00000E-02 [y] snes_conv_reason:   11
  newton =   1 [     540] linear =   113 [     61840] cuts =  0 [   1]
  --> max chng: dpmx=   1.5890E-03 dtmpmx=   6.5295E-05

== TH FLOW =====================================================================
 Step    534 Time=  2.59500E+01 Dt=  5.00000E-02 [y] snes_conv_reason:   11
  newton =   1 [     541] linear =   119 [     61959] cuts =  0 [   1]
  --> max chng: dpmx=   1.5402E-03 dtmpmx=   6.4092E-05

== TH FLOW =====================================================================
 Step    535 Time=  2.60000E+01 Dt=  5.00000E-02 [y] snes_conv_reason:   11
  newton =   1 [     542] linear =   112 [     62071] cuts =  0 [   1]
  --> max chng: dpmx=   1.4919E-03 dtmpmx=   6.2874E-05

== TH FLOW =====================================================================
 Step    536 Time=  2.60500E+01 Dt=  5.00000E-02 [y] snes_conv_reason:   11
  newton =   1 [     543] linear =   117 [     62188] cuts =  0 [   1]
  --> max chng: dpmx=   1.4442E-03 dtmpmx=   6.1643E-05

== TH FLOW =====================================================================
 Step    537 Time=  2.61000E+01 Dt=  5.00000E-02 [y] snes_conv_reason:   11
  newton =   1 [     544] linear =   117 [     62305] cuts =  0 [   1]
  --> max chng: dpmx=   1.3975E-03 dtmpmx=   6.0400E-05

== TH FLOW =====================================================================
 Step    538 Time=  2.61500E+01 Dt=  5.00000E-02 [y] snes_conv_reason:   11
  newton =   1 [     545] linear =   118 [     62423] cuts =  0 [   1]
  --> max chng: dpmx=   1.3515E-03 dtmpmx=   5.9146E-05

== TH FLOW =====================================================================
 Step    539 Time=  2.62000E+01 Dt=  5.00000E-02 [y] snes_conv_reason:   11
  newton =   1 [     546] linear =   117 [     62540] cuts =  0 [   1]
  --> max chng: dpmx=   1.3063E-03 dtmpmx=   5.7883E-05

== TH FLOW =====================================================================
 Step    540 Time=  2.62500E+01 Dt=  5.00000E-02 [y] snes_conv_reason:   11
  newton =   1 [     547] linear =   119 [     62659] cuts =  0 [   1]
  --> max chng: dpmx=   1.2619E-03 dtmpmx=   5.6612E-05

== TH FLOW =====================================================================
 Step    541 Time=  2.63000E+01 Dt=  5.00000E-02 [y] snes_conv_reason:   11
  newton =   1 [     548] linear =   117 [     62776] cuts =  0 [   1]
  --> max chng: dpmx=   1.2184E-03 dtmpmx=   5.5334E-05

== TH FLOW =====================================================================
 Step    542 Time=  2.63500E+01 Dt=  5.00000E-02 [y] snes_conv_reason:   11
  newton =   1 [     549] linear =   115 [     62891] cuts =  0 [   1]
  --> max chng: dpmx=   1.1757E-03 dtmpmx=   5.4050E-05

== TH FLOW =====================================================================
 Step    543 Time=  2.64000E+01 Dt=  5.00000E-02 [y] snes_conv_reason:   11
  newton =   1 [     550] linear =   120 [     63011] cuts =  0 [   1]
  --> max chng: dpmx=   1.1337E-03 dtmpmx=   5.2763E-05

== TH FLOW =====================================================================
 Step    544 Time=  2.64500E+01 Dt=  5.00000E-02 [y] snes_conv_reason:   11
  newton =   1 [     551] linear =   119 [     63130] cuts =  0 [   1]
  --> max chng: dpmx=   1.0927E-03 dtmpmx=   5.1483E-05

== TH FLOW =====================================================================
 Step    545 Time=  2.65000E+01 Dt=  5.00000E-02 [y] snes_conv_reason:   11
  newton =   1 [     552] linear =   120 [     63250] cuts =  0 [   1]
  --> max chng: dpmx=   1.0524E-03 dtmpmx=   5.0229E-05

== TH FLOW =====================================================================
 Step    546 Time=  2.65500E+01 Dt=  5.00000E-02 [y] snes_conv_reason:   11
  newton =   1 [     553] linear =   118 [     63368] cuts =  0 [   1]
  --> max chng: dpmx=   1.0131E-03 dtmpmx=   4.8973E-05

== TH FLOW =====================================================================
 Step    547 Time=  2.66000E+01 Dt=  5.00000E-02 [y] snes_conv_reason:   11
  newton =   1 [     554] linear =   119 [     63487] cuts =  0 [   1]
  --> max chng: dpmx=   9.7456E-04 dtmpmx=   4.7718E-05

== TH FLOW =====================================================================
 Step    548 Time=  2.66500E+01 Dt=  5.00000E-02 [y] snes_conv_reason:   11
  newton =   1 [     555] linear =   119 [     63606] cuts =  0 [   1]
  --> max chng: dpmx=   9.3699E-04 dtmpmx=   4.6464E-05

== TH FLOW =====================================================================
 Step    549 Time=  2.67000E+01 Dt=  5.00000E-02 [y] snes_conv_reason:   11
  newton =   1 [     556] linear =   119 [     63725] cuts =  0 [   1]
  --> max chng: dpmx=   9.0027E-04 dtmpmx=   4.5213E-05

== TH FLOW =====================================================================
 Step    550 Time=  2.67500E+01 Dt=  5.00000E-02 [y] snes_conv_reason:   11
  newton =   1 [     557] linear =   117 [     63842] cuts =  0 [   1]
  --> max chng: dpmx=   8.6452E-04 dtmpmx=   4.3965E-05

== TH FLOW =====================================================================
 Step    551 Time=  2.68000E+01 Dt=  5.00000E-02 [y] snes_conv_reason:   11
  newton =   1 [     558] linear =   120 [     63962] cuts =  0 [   1]
  --> max chng: dpmx=   8.2968E-04 dtmpmx=   4.2723E-05

== TH FLOW =====================================================================
 Step    552 Time=  2.68500E+01 Dt=  5.00000E-02 [y] snes_conv_reason:   11
  newton =   1 [     559] linear =   120 [     64082] cuts =  0 [   1]
  --> max chng: dpmx=   7.9559E-04 dtmpmx=   4.1488E-05

== TH FLOW =====================================================================
 Step    553 Time=  2.69000E+01 Dt=  5.00000E-02 [y] snes_conv_reason:   11
  newton =   1 [     560] linear =   118 [     64200] cuts =  0 [   1]
  --> max chng: dpmx=   7.6253E-04 dtmpmx=   4.0260E-05

== TH FLOW =====================================================================
 Step    554 Time=  2.69500E+01 Dt=  5.00000E-02 [y] snes_conv_reason:   11
  newton =   1 [     561] linear =   119 [     64319] cuts =  0 [   1]
  --> max chng: dpmx=   7.3031E-04 dtmpmx=   3.9042E-05

== TH FLOW =====================================================================
 Step    555 Time=  2.70000E+01 Dt=  5.00000E-02 [y] snes_conv_reason:   11
  newton =   1 [     562] linear =   120 [     64439] cuts =  0 [   1]
  --> max chng: dpmx=   6.9914E-04 dtmpmx=   3.7833E-05

== TH FLOW =====================================================================
 Step    556 Time=  2.70500E+01 Dt=  5.00000E-02 [y] snes_conv_reason:   11
  newton =   1 [     563] linear =   119 [     64558] cuts =  0 [   1]
  --> max chng: dpmx=   6.6844E-04 dtmpmx=   3.6636E-05

== TH FLOW =====================================================================
 Step    557 Time=  2.71000E+01 Dt=  5.00000E-02 [y] snes_conv_reason:   11
  newton =   1 [     564] linear =   121 [     64679] cuts =  0 [   1]
  --> max chng: dpmx=   6.3896E-04 dtmpmx=   3.5452E-05

== TH FLOW =====================================================================
 Step    558 Time=  2.71500E+01 Dt=  5.00000E-02 [y] snes_conv_reason:   11
  newton =   1 [     565] linear =   123 [     64802] cuts =  0 [   1]
  --> max chng: dpmx=   6.1041E-04 dtmpmx=   3.4280E-05

== TH FLOW =====================================================================
 Step    559 Time=  2.72000E+01 Dt=  5.00000E-02 [y] snes_conv_reason:   11
  newton =   1 [     566] linear =   121 [     64923] cuts =  0 [   1]
  --> max chng: dpmx=   5.8242E-04 dtmpmx=   3.3123E-05

== TH FLOW =====================================================================
 Step    560 Time=  2.72500E+01 Dt=  5.00000E-02 [y] snes_conv_reason:   11
  newton =   1 [     567] linear =   122 [     65045] cuts =  0 [   1]
  --> max chng: dpmx=   5.5571E-04 dtmpmx=   3.1982E-05

== TH FLOW =====================================================================
 Step    561 Time=  2.73000E+01 Dt=  5.00000E-02 [y] snes_conv_reason:   11
  newton =   1 [     568] linear =   123 [     65168] cuts =  0 [   1]
  --> max chng: dpmx=   5.2955E-04 dtmpmx=   3.0857E-05

== TH FLOW =====================================================================
 Step    562 Time=  2.73500E+01 Dt=  5.00000E-02 [y] snes_conv_reason:   11
  newton =   1 [     569] linear =   122 [     65290] cuts =  0 [   1]
  --> max chng: dpmx=   5.0434E-04 dtmpmx=   2.9749E-05

== TH FLOW =====================================================================
 Step    563 Time=  2.74000E+01 Dt=  5.00000E-02 [y] snes_conv_reason:   11
  newton =   1 [     570] linear =   119 [     65409] cuts =  0 [   1]
  --> max chng: dpmx=   4.7993E-04 dtmpmx=   2.8659E-05

== TH FLOW =====================================================================
 Step    564 Time=  2.74500E+01 Dt=  5.00000E-02 [y] snes_conv_reason:   11
  newton =   1 [     571] linear =   122 [     65531] cuts =  0 [   1]
  --> max chng: dpmx=   4.5646E-04 dtmpmx=   2.7588E-05

== TH FLOW =====================================================================
 Step    565 Time=  2.75000E+01 Dt=  5.00000E-02 [y] snes_conv_reason:   11
  newton =   1 [     572] linear =   122 [     65653] cuts =  0 [   1]
  --> max chng: dpmx=   4.3371E-04 dtmpmx=   2.6536E-05

 Wall Clock Time:  1.9525E+02 [sec]   3.2542E+00 [min]   5.4237E-02 [hr]
