
===================
  PFLOTRAN v3.0.1
===================

 Extent of Gridded Domain
  X: 2.5000000000000000 - 97.500000000000000
  Y: 2.5000000000000000 - 1277.5000000000000
  Z: 2.5000000000000000 - 2.5000000000000000


=+=+=+=+=+=+=+=+=+=+=+=+=+=+=+=+=+=+=+=+=+=+=+=+=+=+=+=+=+=+=+=+=+=+=+=+=+=+=+=+

  Initial Condition

--------------------------------------------------------------------------------
          Flow Condition:   initial
                  Region:   all
--------------------------------------------------------------------------------

  Flow Condition: initial
    Synchronize time with update: no
    Time units: yr
    Length units: m
      Datum:
        Dataset: Unnamed Ascii Dataset
          Type: dataset_ascii_type
          Transient: no
          Array Rank:  3

    Sub Condition: pressure
      Type: hydrostatic
      Gradient:
        Dataset: Unnamed Ascii Dataset
          Type: dataset_ascii_type
          Transient: no
          Array Rank:  3
      Data:
        Dataset: Unnamed Ascii Dataset
          Type: dataset_ascii_type
          Transient: no
          Array Rank:  1

    Sub Condition: temperature
      Type: dirichlet
      Gradient:
      Data:
        Dataset: Unnamed Ascii Dataset
          Type: dataset_ascii_type
          Transient: no
          Array Rank:  1

--------------------------------------------------------------------------------

=+=+=+=+=+=+=+=+=+=+=+=+=+=+=+=+=+=+=+=+=+=+=+=+=+=+=+=+=+=+=+=+=+=+=+=+=+=+=+=+

  Boundary Condition

--------------------------------------------------------------------------------
          Flow Condition:   initial
                  Region:   north
--------------------------------------------------------------------------------

  Flow Condition: initial
    Synchronize time with update: no
    Time units: yr
    Length units: m
      Datum:
        Dataset: Unnamed Ascii Dataset
          Type: dataset_ascii_type
          Transient: no
          Array Rank:  3

    Sub Condition: pressure
      Type: hydrostatic
      Gradient:
        Dataset: Unnamed Ascii Dataset
          Type: dataset_ascii_type
          Transient: no
          Array Rank:  3
      Data:
        Dataset: Unnamed Ascii Dataset
          Type: dataset_ascii_type
          Transient: no
          Array Rank:  1

    Sub Condition: temperature
      Type: dirichlet
      Gradient:
      Data:
        Dataset: Unnamed Ascii Dataset
          Type: dataset_ascii_type
          Transient: no
          Array Rank:  1

--------------------------------------------------------------------------------

=+=+=+=+=+=+=+=+=+=+=+=+=+=+=+=+=+=+=+=+=+=+=+=+=+=+=+=+=+=+=+=+=+=+=+=+=+=+=+=+

  Boundary Condition

--------------------------------------------------------------------------------
          Flow Condition:   initial
                  Region:   south
--------------------------------------------------------------------------------

  Flow Condition: initial
    Synchronize time with update: no
    Time units: yr
    Length units: m
      Datum:
        Dataset: Unnamed Ascii Dataset
          Type: dataset_ascii_type
          Transient: no
          Array Rank:  3

    Sub Condition: pressure
      Type: hydrostatic
      Gradient:
        Dataset: Unnamed Ascii Dataset
          Type: dataset_ascii_type
          Transient: no
          Array Rank:  3
      Data:
        Dataset: Unnamed Ascii Dataset
          Type: dataset_ascii_type
          Transient: no
          Array Rank:  1

    Sub Condition: temperature
      Type: dirichlet
      Gradient:
      Data:
        Dataset: Unnamed Ascii Dataset
          Type: dataset_ascii_type
          Transient: no
          Array Rank:  1

--------------------------------------------------------------------------------

=+=+=+=+=+=+=+=+=+=+=+=+=+=+=+=+=+=+=+=+=+=+=+=+=+=+=+=+=+=+=+=+=+=+=+=+=+=+=+=+

  Source Sink

--------------------------------------------------------------------------------
          Flow Condition:   injection
                  Region:   heatpump_inject0
--------------------------------------------------------------------------------

  Flow Condition: injection
    Synchronize time with update: no
    Time units: yr
    Length units: m
      Datum:

    Sub Condition: rate
      Type: scaled volumetric rate
      Gradient:
      Data:
        Dataset: Unnamed Ascii Dataset
          Type: dataset_ascii_type
          Is transient?: yes
          Number of times:      3
          Is cyclic?: no
          Buffer:
            Rank:  2
            Dims:    1   3
            Buffer Slice Size:   0
          Array Rank:  1

    Sub Condition: temperature
      Type: dirichlet
      Gradient:
      Data:
        Dataset: Unnamed Ascii Dataset
          Type: dataset_ascii_type
          Transient: no
          Array Rank:  1

--------------------------------------------------------------------------------

 Requested processors =    32

FLOW Time Stepper
                 acceleration: on
       acceleration threshold: 5
       number of ramp entries: 5
                ramp entry #1: 2.0000
                ramp entry #2: 2.0000
                ramp entry #3: 2.0000
                ramp entry #4: 2.0000
                ramp entry #5: 2.0000
                ramp entry #6: 1.8000
                ramp entry #7: 1.6000
                ramp entry #8: 1.4000
                ramp entry #9: 1.2000
               ramp entry #10: 1.0000
               ramp entry #11: 1.0000
               ramp entry #12: 1.0000
               ramp entry #13: 1.0000
      maximum number of steps: 999999
constant time steps threshold: 5
       maximum number of cuts: 16
             reduction factor: 5.000000E-01
        maximum growth factor: 2.000000E+00

FLOW Newton Solver
                         atol: 1.000000E-50
                         rtol: 1.000000E-03
                         stol: 1.000000E-08
                         dtol: 1.000000E+04
                      maxnorm: 1.000000E+20
                    inftolres: -9.990000E+02
                    inftolupd: 1.000000E+00
                 inftolrelupd: -9.990000E+02
                 inftolsclres: -9.990000E+02
                     max iter: 50
                     min iter: 1
                         maxf: 10000
                  matrix type: baij
         precond. matrix type: baij
               inexact newton: off
            print convergence: on
   print detailed convergence: off
          check infinity norm: on

FLOW Linear Solver
                       solver: bcgs
               preconditioner: bjacobi
                         atol: 1.000000E-50
                         rtol: 1.000000E-05
                         dtol: 1.000000E+04
            maximum iteration: 10000

== TH FLOW =====================================================================
 Step      1 Time=  1.00000E-05 Dt=  1.00000E-05 [y] snes_conv_reason:   11
  newton =   1 [       1] linear =   105 [       105] cuts =  0 [   0]
  --> max chng: dpmx=   1.9701E-02 dtmpmx=   8.1988E-10

== TH FLOW =====================================================================
 Step      2 Time=  3.00000E-05 Dt=  2.00000E-05 [y] snes_conv_reason:   11
  newton =   1 [       2] linear =   110 [       215] cuts =  0 [   0]
  --> max chng: dpmx=   2.0513E-02 dtmpmx=   1.6161E-09

== TH FLOW =====================================================================
 Step      3 Time=  7.00000E-05 Dt=  4.00000E-05 [y] snes_conv_reason:   11
  newton =   1 [       3] linear =   114 [       329] cuts =  0 [   0]
  --> max chng: dpmx=   1.3513E-02 dtmpmx=   3.1978E-09

== TH FLOW =====================================================================
 Step      4 Time=  1.50000E-04 Dt=  8.00000E-05 [y] snes_conv_reason:   11
  newton =   1 [       4] linear =   124 [       453] cuts =  0 [   0]
  --> max chng: dpmx=   5.2541E-03 dtmpmx=   6.3683E-09

== TH FLOW =====================================================================
 Step      5 Time=  3.10000E-04 Dt=  1.60000E-04 [y] snes_conv_reason:   11
  newton =   1 [       5] linear =   122 [       575] cuts =  0 [   0]
  --> max chng: dpmx=   1.1289E-03 dtmpmx=   1.2725E-08

== TH FLOW =====================================================================
 Step      6 Time=  6.30000E-04 Dt=  3.20000E-04 [y] snes_conv_reason:   11
  newton =   1 [       6] linear =   114 [       689] cuts =  0 [   0]
  --> max chng: dpmx=   1.2809E-04 dtmpmx=   2.5448E-08

== TH FLOW =====================================================================
 Step      7 Time=  1.27000E-03 Dt=  6.40000E-04 [y] snes_conv_reason:   11
  newton =   1 [       7] linear =   119 [       808] cuts =  0 [   0]
  --> max chng: dpmx=   7.4112E-06 dtmpmx=   5.0895E-08

== TH FLOW =====================================================================
 Step      8 Time=  2.55000E-03 Dt=  1.28000E-03 [y] snes_conv_reason:   11
  newton =   1 [       8] linear =    99 [       907] cuts =  0 [   0]
  --> max chng: dpmx=   2.8312E-07 dtmpmx=   1.0179E-07

== TH FLOW =====================================================================
 Step      9 Time=  5.11000E-03 Dt=  2.56000E-03 [y] snes_conv_reason:   11
  newton =   1 [       9] linear =   118 [      1025] cuts =  0 [   0]
  --> max chng: dpmx=   5.8021E-07 dtmpmx=   2.0358E-07

== TH FLOW =====================================================================
 Step     10 Time=  1.02300E-02 Dt=  5.12000E-03 [y] snes_conv_reason:   11
  newton =   1 [      10] linear =   126 [      1151] cuts =  0 [   0]
  --> max chng: dpmx=   1.1801E-06 dtmpmx=   4.0716E-07

== TH FLOW =====================================================================
 Step     11 Time=  2.04700E-02 Dt=  1.02400E-02 [y] snes_conv_reason:   11
  newton =   1 [      11] linear =   122 [      1273] cuts =  0 [   0]
  --> max chng: dpmx=   2.4408E-06 dtmpmx=   8.1432E-07

== TH FLOW =====================================================================
 Step     12 Time=  4.09500E-02 Dt=  2.04800E-02 [y] snes_conv_reason:   11
  newton =   1 [      12] linear =   114 [      1387] cuts =  0 [   0]
  --> max chng: dpmx=   5.1957E-06 dtmpmx=   1.6286E-06

== TH FLOW =====================================================================
 Step     13 Time=  8.19100E-02 Dt=  4.09600E-02 [y] snes_conv_reason:   11
  newton =   1 [      13] linear =   126 [      1513] cuts =  0 [   0]
  --> max chng: dpmx=   1.1666E-05 dtmpmx=   3.2573E-06

== TH FLOW =====================================================================
 Step     14 Time=  1.00000E-01 Dt=  1.80900E-02 [y] snes_conv_reason:   11
  newton =   1 [      14] linear =   123 [      1636] cuts =  0 [   0]
  --> max chng: dpmx=   5.4020E-06 dtmpmx=   1.4386E-06

== TH FLOW =====================================================================
 Step     15 Time=  1.50000E-01 Dt=  5.00000E-02 [y] snes_conv_reason:   11
  newton =   1 [      15] linear =   123 [      1759] cuts =  0 [   0]
  --> max chng: dpmx=   1.6803E-05 dtmpmx=   3.9762E-06

== TH FLOW =====================================================================
 Step     16 Time=  2.00000E-01 Dt=  5.00000E-02 [y] snes_conv_reason:   11
  newton =   1 [      16] linear =   123 [      1882] cuts =  0 [   0]
  --> max chng: dpmx=   1.8656E-05 dtmpmx=   3.9762E-06

== TH FLOW =====================================================================
 Step     17 Time=  2.50000E-01 Dt=  5.00000E-02 [y] snes_conv_reason:    3
  newton =   3 [      19] linear =   399 [      2281] cuts =  0 [   0]
  --> max chng: dpmx=   2.2058E+03 dtmpmx=   3.5136E+00

== TH FLOW =====================================================================
 Step     18 Time=  3.00000E-01 Dt=  5.00000E-02 [y] snes_conv_reason:   11
  newton =   2 [      21] linear =   265 [      2546] cuts =  0 [   0]
  --> max chng: dpmx=   1.3731E+01 dtmpmx=   1.2739E+00

== TH FLOW =====================================================================
 Step     19 Time=  3.50000E-01 Dt=  5.00000E-02 [y] snes_conv_reason:   11
  newton =   2 [      23] linear =   266 [      2812] cuts =  0 [   0]
  --> max chng: dpmx=   6.8766E+00 dtmpmx=   8.5958E-01

== TH FLOW =====================================================================
 Step     20 Time=  4.00000E-01 Dt=  5.00000E-02 [y] snes_conv_reason:   11
  newton =   2 [      25] linear =   258 [      3070] cuts =  0 [   0]
  --> max chng: dpmx=   4.1775E+00 dtmpmx=   6.7077E-01

== TH FLOW =====================================================================
 Step     21 Time=  4.50000E-01 Dt=  5.00000E-02 [y] snes_conv_reason:   11
  newton =   2 [      27] linear =   264 [      3334] cuts =  0 [   0]
  --> max chng: dpmx=   2.9705E+00 dtmpmx=   5.6600E-01

== TH FLOW =====================================================================
 Step     22 Time=  5.00000E-01 Dt=  5.00000E-02 [y] snes_conv_reason:    3
  newton =   1 [      28] linear =   131 [      3465] cuts =  0 [   0]
  --> max chng: dpmx=   2.3247E+00 dtmpmx=   4.7432E-01

== TH FLOW =====================================================================
 Step     23 Time=  5.50000E-01 Dt=  5.00000E-02 [y] snes_conv_reason:    3
  newton =   1 [      29] linear =   135 [      3600] cuts =  0 [   0]
  --> max chng: dpmx=   1.9534E+00 dtmpmx=   4.4048E-01

== TH FLOW =====================================================================
 Step     24 Time=  6.00000E-01 Dt=  5.00000E-02 [y] snes_conv_reason:    3
  newton =   1 [      30] linear =   138 [      3738] cuts =  0 [   0]
  --> max chng: dpmx=   1.9018E+00 dtmpmx=   3.9400E-01

== TH FLOW =====================================================================
 Step     25 Time=  6.50000E-01 Dt=  5.00000E-02 [y] snes_conv_reason:    3
  newton =   1 [      31] linear =   138 [      3876] cuts =  0 [   0]
  --> max chng: dpmx=   1.8442E+00 dtmpmx=   3.5112E-01

== TH FLOW =====================================================================
 Step     26 Time=  7.00000E-01 Dt=  5.00000E-02 [y] snes_conv_reason:    3
  newton =   1 [      32] linear =   131 [      4007] cuts =  0 [   0]
  --> max chng: dpmx=   1.8203E+00 dtmpmx=   3.3646E-01

== TH FLOW =====================================================================
 Step     27 Time=  7.50000E-01 Dt=  5.00000E-02 [y] snes_conv_reason:    3
  newton =   1 [      33] linear =   133 [      4140] cuts =  0 [   0]
  --> max chng: dpmx=   1.7866E+00 dtmpmx=   3.1471E-01

== TH FLOW =====================================================================
 Step     28 Time=  8.00000E-01 Dt=  5.00000E-02 [y] snes_conv_reason:    3
  newton =   1 [      34] linear =   138 [      4278] cuts =  0 [   0]
  --> max chng: dpmx=   1.7544E+00 dtmpmx=   2.8868E-01

== TH FLOW =====================================================================
 Step     29 Time=  8.50000E-01 Dt=  5.00000E-02 [y] snes_conv_reason:    3
  newton =   1 [      35] linear =   134 [      4412] cuts =  0 [   0]
  --> max chng: dpmx=   1.7403E+00 dtmpmx=   2.7409E-01

== TH FLOW =====================================================================
 Step     30 Time=  9.00000E-01 Dt=  5.00000E-02 [y] snes_conv_reason:    3
  newton =   1 [      36] linear =   138 [      4550] cuts =  0 [   0]
  --> max chng: dpmx=   1.7179E+00 dtmpmx=   2.6475E-01

== TH FLOW =====================================================================
 Step     31 Time=  9.50000E-01 Dt=  5.00000E-02 [y] snes_conv_reason:    3
  newton =   1 [      37] linear =   138 [      4688] cuts =  0 [   0]
  --> max chng: dpmx=   1.6938E+00 dtmpmx=   2.5185E-01

== TH FLOW =====================================================================
 Step     32 Time=  1.00000E+00 Dt=  5.00000E-02 [y] snes_conv_reason:    3
  newton =   1 [      38] linear =   140 [      4828] cuts =  0 [   0]
  --> max chng: dpmx=   1.6848E+00 dtmpmx=   2.3647E-01

== TH FLOW =====================================================================
 Step     33 Time=  1.05000E+00 Dt=  5.00000E-02 [y] snes_conv_reason:    3
  newton =   1 [      39] linear =   141 [      4969] cuts =  0 [   0]
  --> max chng: dpmx=   1.6707E+00 dtmpmx=   2.2711E-01

== TH FLOW =====================================================================
 Step     34 Time=  1.10000E+00 Dt=  5.00000E-02 [y] snes_conv_reason:    3
  newton =   1 [      40] linear =   139 [      5108] cuts =  0 [   0]
  --> max chng: dpmx=   1.6511E+00 dtmpmx=   2.2177E-01

== TH FLOW =====================================================================
 Step     35 Time=  1.15000E+00 Dt=  5.00000E-02 [y] snes_conv_reason:    3
  newton =   1 [      41] linear =   134 [      5242] cuts =  0 [   0]
  --> max chng: dpmx=   1.6440E+00 dtmpmx=   2.1415E-01

== TH FLOW =====================================================================
 Step     36 Time=  1.20000E+00 Dt=  5.00000E-02 [y] snes_conv_reason:    3
  newton =   1 [      42] linear =   134 [      5376] cuts =  0 [   0]
  --> max chng: dpmx=   1.6350E+00 dtmpmx=   2.0474E-01

== TH FLOW =====================================================================
 Step     37 Time=  1.25000E+00 Dt=  5.00000E-02 [y] snes_conv_reason:    3
  newton =   1 [      43] linear =   136 [      5512] cuts =  0 [   0]
  --> max chng: dpmx=   1.6227E+00 dtmpmx=   1.9536E-01

== TH FLOW =====================================================================
 Step     38 Time=  1.30000E+00 Dt=  5.00000E-02 [y] snes_conv_reason:    3
  newton =   1 [      44] linear =   136 [      5648] cuts =  0 [   0]
  --> max chng: dpmx=   1.6122E+00 dtmpmx=   1.9263E-01

== TH FLOW =====================================================================
 Step     39 Time=  1.35000E+00 Dt=  5.00000E-02 [y] snes_conv_reason:    3
  newton =   1 [      45] linear =   136 [      5784] cuts =  0 [   0]
  --> max chng: dpmx=   1.6072E+00 dtmpmx=   1.8826E-01

== TH FLOW =====================================================================
 Step     40 Time=  1.40000E+00 Dt=  5.00000E-02 [y] snes_conv_reason:    3
  newton =   1 [      46] linear =   138 [      5922] cuts =  0 [   0]
  --> max chng: dpmx=   1.5988E+00 dtmpmx=   1.8252E-01

== TH FLOW =====================================================================
 Step     41 Time=  1.45000E+00 Dt=  5.00000E-02 [y] snes_conv_reason:    3
  newton =   1 [      47] linear =   136 [      6058] cuts =  0 [   0]
  --> max chng: dpmx=   1.5864E+00 dtmpmx=   1.7566E-01

== TH FLOW =====================================================================
 Step     42 Time=  1.50000E+00 Dt=  5.00000E-02 [y] snes_conv_reason:    3
  newton =   1 [      48] linear =   141 [      6199] cuts =  0 [   0]
  --> max chng: dpmx=   1.5830E+00 dtmpmx=   1.7104E-01

== TH FLOW =====================================================================
 Step     43 Time=  1.55000E+00 Dt=  5.00000E-02 [y] snes_conv_reason:    3
  newton =   1 [      49] linear =   134 [      6333] cuts =  0 [   0]
  --> max chng: dpmx=   1.5775E+00 dtmpmx=   1.6877E-01

== TH FLOW =====================================================================
 Step     44 Time=  1.60000E+00 Dt=  5.00000E-02 [y] snes_conv_reason:    3
  newton =   1 [      50] linear =   134 [      6467] cuts =  0 [   0]
  --> max chng: dpmx=   1.5701E+00 dtmpmx=   1.6540E-01

== TH FLOW =====================================================================
 Step     45 Time=  1.65000E+00 Dt=  5.00000E-02 [y] snes_conv_reason:    3
  newton =   1 [      51] linear =   133 [      6600] cuts =  0 [   0]
  --> max chng: dpmx=   1.5628E+00 dtmpmx=   1.6109E-01

== TH FLOW =====================================================================
 Step     46 Time=  1.70000E+00 Dt=  5.00000E-02 [y] snes_conv_reason:    3
  newton =   1 [      52] linear =   135 [      6735] cuts =  0 [   0]
  --> max chng: dpmx=   1.5597E+00 dtmpmx=   1.5598E-01

== TH FLOW =====================================================================
 Step     47 Time=  1.75000E+00 Dt=  5.00000E-02 [y] snes_conv_reason:    3
  newton =   1 [      53] linear =   137 [      6872] cuts =  0 [   0]
  --> max chng: dpmx=   1.5543E+00 dtmpmx=   1.5316E-01

== TH FLOW =====================================================================
 Step     48 Time=  1.80000E+00 Dt=  5.00000E-02 [y] snes_conv_reason:    3
  newton =   1 [      54] linear =   134 [      7006] cuts =  0 [   0]
  --> max chng: dpmx=   1.5473E+00 dtmpmx=   1.5140E-01

== TH FLOW =====================================================================
 Step     49 Time=  1.85000E+00 Dt=  5.00000E-02 [y] snes_conv_reason:    3
  newton =   1 [      55] linear =   137 [      7143] cuts =  0 [   0]
  --> max chng: dpmx=   1.5431E+00 dtmpmx=   1.4884E-01

== TH FLOW =====================================================================
 Step     50 Time=  1.90000E+00 Dt=  5.00000E-02 [y] snes_conv_reason:    3
  newton =   1 [      56] linear =   137 [      7280] cuts =  0 [   0]
  --> max chng: dpmx=   1.5403E+00 dtmpmx=   1.4556E-01

== TH FLOW =====================================================================
 Step     51 Time=  1.95000E+00 Dt=  5.00000E-02 [y] snes_conv_reason:    3
  newton =   1 [      57] linear =   137 [      7417] cuts =  0 [   0]
  --> max chng: dpmx=   1.5353E+00 dtmpmx=   1.4168E-01

== TH FLOW =====================================================================
 Step     52 Time=  2.00000E+00 Dt=  5.00000E-02 [y] snes_conv_reason:    3
  newton =   1 [      58] linear =   134 [      7551] cuts =  0 [   0]
  --> max chng: dpmx=   1.5288E+00 dtmpmx=   1.3949E-01

== TH FLOW =====================================================================
 Step     53 Time=  2.05000E+00 Dt=  5.00000E-02 [y] snes_conv_reason:    3
  newton =   1 [      59] linear =   139 [      7690] cuts =  0 [   0]
  --> max chng: dpmx=   1.5265E+00 dtmpmx=   1.3817E-01

== TH FLOW =====================================================================
 Step     54 Time=  2.10000E+00 Dt=  5.00000E-02 [y] snes_conv_reason:    3
  newton =   1 [      60] linear =   138 [      7828] cuts =  0 [   0]
  --> max chng: dpmx=   1.5236E+00 dtmpmx=   1.3622E-01

== TH FLOW =====================================================================
 Step     55 Time=  2.15000E+00 Dt=  5.00000E-02 [y] snes_conv_reason:    3
  newton =   1 [      61] linear =   120 [      7948] cuts =  0 [   0]
  --> max chng: dpmx=   1.5195E+00 dtmpmx=   1.3371E-01

== TH FLOW =====================================================================
 Step     56 Time=  2.20000E+00 Dt=  5.00000E-02 [y] snes_conv_reason:    3
  newton =   1 [      62] linear =   137 [      8085] cuts =  0 [   0]
  --> max chng: dpmx=   1.5131E+00 dtmpmx=   1.3071E-01

== TH FLOW =====================================================================
 Step     57 Time=  2.25000E+00 Dt=  5.00000E-02 [y] snes_conv_reason:    3
  newton =   1 [      63] linear =   132 [      8217] cuts =  0 [   0]
  --> max chng: dpmx=   1.5121E+00 dtmpmx=   1.2867E-01

== TH FLOW =====================================================================
 Step     58 Time=  2.30000E+00 Dt=  5.00000E-02 [y] snes_conv_reason:    3
  newton =   1 [      64] linear =   136 [      8353] cuts =  0 [   0]
  --> max chng: dpmx=   1.5097E+00 dtmpmx=   1.2770E-01

== TH FLOW =====================================================================
 Step     59 Time=  2.35000E+00 Dt=  5.00000E-02 [y] snes_conv_reason:    3
  newton =   1 [      65] linear =   138 [      8491] cuts =  0 [   0]
  --> max chng: dpmx=   1.5054E+00 dtmpmx=   1.2623E-01

== TH FLOW =====================================================================
 Step     60 Time=  2.40000E+00 Dt=  5.00000E-02 [y] snes_conv_reason:    3
  newton =   1 [      66] linear =   138 [      8629] cuts =  0 [   0]
  --> max chng: dpmx=   1.5008E+00 dtmpmx=   1.2430E-01

== TH FLOW =====================================================================
 Step     61 Time=  2.45000E+00 Dt=  5.00000E-02 [y] snes_conv_reason:    3
  newton =   1 [      67] linear =   140 [      8769] cuts =  0 [   0]
  --> max chng: dpmx=   1.4992E+00 dtmpmx=   1.2195E-01

== TH FLOW =====================================================================
 Step     62 Time=  2.50000E+00 Dt=  5.00000E-02 [y] snes_conv_reason:    3
  newton =   1 [      68] linear =   139 [      8908] cuts =  0 [   0]
  --> max chng: dpmx=   1.4971E+00 dtmpmx=   1.1987E-01

== TH FLOW =====================================================================
 Step     63 Time=  2.55000E+00 Dt=  5.00000E-02 [y] snes_conv_reason:    3
  newton =   1 [      69] linear =   139 [      9047] cuts =  0 [   0]
  --> max chng: dpmx=   1.4933E+00 dtmpmx=   1.1918E-01

== TH FLOW =====================================================================
 Step     64 Time=  2.60000E+00 Dt=  5.00000E-02 [y] snes_conv_reason:    3
  newton =   1 [      70] linear =   137 [      9184] cuts =  0 [   0]
  --> max chng: dpmx=   1.4890E+00 dtmpmx=   1.1807E-01

== TH FLOW =====================================================================
 Step     65 Time=  2.65000E+00 Dt=  5.00000E-02 [y] snes_conv_reason:    3
  newton =   1 [      71] linear =   140 [      9324] cuts =  0 [   0]
  --> max chng: dpmx=   1.4880E+00 dtmpmx=   1.1658E-01

== TH FLOW =====================================================================
 Step     66 Time=  2.70000E+00 Dt=  5.00000E-02 [y] snes_conv_reason:    3
  newton =   1 [      72] linear =   143 [      9467] cuts =  0 [   0]
  --> max chng: dpmx=   1.4858E+00 dtmpmx=   1.1473E-01

== TH FLOW =====================================================================
 Step     67 Time=  2.75000E+00 Dt=  5.00000E-02 [y] snes_conv_reason:    3
  newton =   1 [      73] linear =   140 [      9607] cuts =  0 [   0]
  --> max chng: dpmx=   1.4823E+00 dtmpmx=   1.1281E-01

== TH FLOW =====================================================================
 Step     68 Time=  2.80000E+00 Dt=  5.00000E-02 [y] snes_conv_reason:    3
  newton =   1 [      74] linear =   135 [      9742] cuts =  0 [   0]
  --> max chng: dpmx=   1.4782E+00 dtmpmx=   1.1206E-01

== TH FLOW =====================================================================
 Step     69 Time=  2.85000E+00 Dt=  5.00000E-02 [y] snes_conv_reason:    3
  newton =   1 [      75] linear =   140 [      9882] cuts =  0 [   0]
  --> max chng: dpmx=   1.4778E+00 dtmpmx=   1.1124E-01

== TH FLOW =====================================================================
 Step     70 Time=  2.90000E+00 Dt=  5.00000E-02 [y] snes_conv_reason:    3
  newton =   1 [      76] linear =   139 [     10021] cuts =  0 [   0]
  --> max chng: dpmx=   1.4757E+00 dtmpmx=   1.1009E-01

== TH FLOW =====================================================================
 Step     71 Time=  2.95000E+00 Dt=  5.00000E-02 [y] snes_conv_reason:    3
  newton =   1 [      77] linear =   140 [     10161] cuts =  0 [   0]
  --> max chng: dpmx=   1.4724E+00 dtmpmx=   1.0862E-01

== TH FLOW =====================================================================
 Step     72 Time=  3.00000E+00 Dt=  5.00000E-02 [y] snes_conv_reason:    3
  newton =   1 [      78] linear =   140 [     10301] cuts =  0 [   0]
  --> max chng: dpmx=   1.4688E+00 dtmpmx=   1.0688E-01

== TH FLOW =====================================================================
 Step     73 Time=  3.05000E+00 Dt=  5.00000E-02 [y] snes_conv_reason:    3
  newton =   1 [      79] linear =   133 [     10434] cuts =  0 [   0]
  --> max chng: dpmx=   1.4678E+00 dtmpmx=   1.0606E-01

== TH FLOW =====================================================================
 Step     74 Time=  3.10000E+00 Dt=  5.00000E-02 [y] snes_conv_reason:    3
  newton =   1 [      80] linear =   136 [     10570] cuts =  0 [   0]
  --> max chng: dpmx=   1.4662E+00 dtmpmx=   1.0541E-01

== TH FLOW =====================================================================
 Step     75 Time=  3.15000E+00 Dt=  5.00000E-02 [y] snes_conv_reason:    3
  newton =   1 [      81] linear =   138 [     10708] cuts =  0 [   0]
  --> max chng: dpmx=   1.4632E+00 dtmpmx=   1.0453E-01

== TH FLOW =====================================================================
 Step     76 Time=  3.20000E+00 Dt=  5.00000E-02 [y] snes_conv_reason:    3
  newton =   1 [      82] linear =   139 [     10847] cuts =  0 [   0]
  --> max chng: dpmx=   1.4596E+00 dtmpmx=   1.0337E-01

== TH FLOW =====================================================================
 Step     77 Time=  3.25000E+00 Dt=  5.00000E-02 [y] snes_conv_reason:    3
  newton =   1 [      83] linear =   139 [     10986] cuts =  0 [   0]
  --> max chng: dpmx=   1.4590E+00 dtmpmx=   1.0196E-01

== TH FLOW =====================================================================
 Step     78 Time=  3.30000E+00 Dt=  5.00000E-02 [y] snes_conv_reason:    3
  newton =   1 [      84] linear =   135 [     11121] cuts =  0 [   0]
  --> max chng: dpmx=   1.4570E+00 dtmpmx=   1.0108E-01

== TH FLOW =====================================================================
 Step     79 Time=  3.35000E+00 Dt=  5.00000E-02 [y] snes_conv_reason:    3
  newton =   1 [      85] linear =   140 [     11261] cuts =  0 [   0]
  --> max chng: dpmx=   1.4547E+00 dtmpmx=   1.0036E-01

== TH FLOW =====================================================================
 Step     80 Time=  3.40000E+00 Dt=  5.00000E-02 [y] snes_conv_reason:    3
  newton =   1 [      86] linear =   138 [     11399] cuts =  0 [   0]
  --> max chng: dpmx=   1.4509E+00 dtmpmx=   9.9685E-02

== TH FLOW =====================================================================
 Step     81 Time=  3.45000E+00 Dt=  5.00000E-02 [y] snes_conv_reason:    3
  newton =   1 [      87] linear =   138 [     11537] cuts =  0 [   0]
  --> max chng: dpmx=   1.4505E+00 dtmpmx=   9.8774E-02

== TH FLOW =====================================================================
 Step     82 Time=  3.50000E+00 Dt=  5.00000E-02 [y] snes_conv_reason:    3
  newton =   1 [      88] linear =   139 [     11676] cuts =  0 [   0]
  --> max chng: dpmx=   1.4486E+00 dtmpmx=   9.7638E-02

== TH FLOW =====================================================================
 Step     83 Time=  3.55000E+00 Dt=  5.00000E-02 [y] snes_conv_reason:    3
  newton =   1 [      89] linear =   140 [     11816] cuts =  0 [   0]
  --> max chng: dpmx=   1.4463E+00 dtmpmx=   9.6687E-02

== TH FLOW =====================================================================
 Step     84 Time=  3.60000E+00 Dt=  5.00000E-02 [y] snes_conv_reason:    3
  newton =   1 [      90] linear =   140 [     11956] cuts =  0 [   0]
  --> max chng: dpmx=   1.4432E+00 dtmpmx=   9.6108E-02

== TH FLOW =====================================================================
 Step     85 Time=  3.65000E+00 Dt=  5.00000E-02 [y] snes_conv_reason:    3
  newton =   1 [      91] linear =   139 [     12095] cuts =  0 [   0]
  --> max chng: dpmx=   1.4421E+00 dtmpmx=   9.5416E-02

== TH FLOW =====================================================================
 Step     86 Time=  3.70000E+00 Dt=  5.00000E-02 [y] snes_conv_reason:    3
  newton =   1 [      92] linear =   134 [     12229] cuts =  0 [   0]
  --> max chng: dpmx=   1.4404E+00 dtmpmx=   9.4704E-02

== TH FLOW =====================================================================
 Step     87 Time=  3.75000E+00 Dt=  5.00000E-02 [y] snes_conv_reason:    3
  newton =   1 [      93] linear =   131 [     12360] cuts =  0 [   0]
  --> max chng: dpmx=   1.4384E+00 dtmpmx=   9.3789E-02

== TH FLOW =====================================================================
 Step     88 Time=  3.80000E+00 Dt=  5.00000E-02 [y] snes_conv_reason:    3
  newton =   1 [      94] linear =   129 [     12489] cuts =  0 [   0]
  --> max chng: dpmx=   1.4357E+00 dtmpmx=   9.2768E-02

== TH FLOW =====================================================================
 Step     89 Time=  3.85000E+00 Dt=  5.00000E-02 [y] snes_conv_reason:    3
  newton =   1 [      95] linear =   140 [     12629] cuts =  0 [   0]
  --> max chng: dpmx=   1.4340E+00 dtmpmx=   9.2354E-02

== TH FLOW =====================================================================
 Step     90 Time=  3.90000E+00 Dt=  5.00000E-02 [y] snes_conv_reason:    3
  newton =   1 [      96] linear =   139 [     12768] cuts =  0 [   0]
  --> max chng: dpmx=   1.4328E+00 dtmpmx=   9.1744E-02

== TH FLOW =====================================================================
 Step     91 Time=  3.95000E+00 Dt=  5.00000E-02 [y] snes_conv_reason:    3
  newton =   1 [      97] linear =   127 [     12895] cuts =  0 [   0]
  --> max chng: dpmx=   1.4306E+00 dtmpmx=   9.1062E-02

== TH FLOW =====================================================================
 Step     92 Time=  4.00000E+00 Dt=  5.00000E-02 [y] snes_conv_reason:    3
  newton =   1 [      98] linear =   139 [     13034] cuts =  0 [   0]
  --> max chng: dpmx=   1.4284E+00 dtmpmx=   9.0329E-02

== TH FLOW =====================================================================
 Step     93 Time=  4.05000E+00 Dt=  5.00000E-02 [y] snes_conv_reason:    3
  newton =   1 [      99] linear =   128 [     13162] cuts =  0 [   0]
  --> max chng: dpmx=   1.4260E+00 dtmpmx=   8.9421E-02

== TH FLOW =====================================================================
 Step     94 Time=  4.10000E+00 Dt=  5.00000E-02 [y] snes_conv_reason:    3
  newton =   1 [     100] linear =   139 [     13301] cuts =  0 [   0]
  --> max chng: dpmx=   1.4253E+00 dtmpmx=   8.8961E-02

== TH FLOW =====================================================================
 Step     95 Time=  4.15000E+00 Dt=  5.00000E-02 [y] snes_conv_reason:    3
  newton =   1 [     101] linear =   129 [     13430] cuts =  0 [   0]
  --> max chng: dpmx=   1.4235E+00 dtmpmx=   8.8503E-02

== TH FLOW =====================================================================
 Step     96 Time=  4.20000E+00 Dt=  5.00000E-02 [y] snes_conv_reason:    3
  newton =   1 [     102] linear =   133 [     13563] cuts =  0 [   0]
  --> max chng: dpmx=   1.4210E+00 dtmpmx=   8.7875E-02

== TH FLOW =====================================================================
 Step     97 Time=  4.25000E+00 Dt=  5.00000E-02 [y] snes_conv_reason:    3
  newton =   1 [     103] linear =   134 [     13697] cuts =  0 [   0]
  --> max chng: dpmx=   1.4190E+00 dtmpmx=   8.7192E-02

== TH FLOW =====================================================================
 Step     98 Time=  4.30000E+00 Dt=  5.00000E-02 [y] snes_conv_reason:    3
  newton =   1 [     104] linear =   137 [     13834] cuts =  0 [   0]
  --> max chng: dpmx=   1.4178E+00 dtmpmx=   8.6451E-02

== TH FLOW =====================================================================
 Step     99 Time=  4.35000E+00 Dt=  5.00000E-02 [y] snes_conv_reason:    3
  newton =   1 [     105] linear =   136 [     13970] cuts =  0 [   0]
  --> max chng: dpmx=   1.4161E+00 dtmpmx=   8.5874E-02

== TH FLOW =====================================================================
 Step    100 Time=  4.40000E+00 Dt=  5.00000E-02 [y] snes_conv_reason:    3
  newton =   1 [     106] linear =   136 [     14106] cuts =  0 [   0]
  --> max chng: dpmx=   1.4137E+00 dtmpmx=   8.5542E-02

== TH FLOW =====================================================================
 Step    101 Time=  4.45000E+00 Dt=  5.00000E-02 [y] snes_conv_reason:    3
  newton =   1 [     107] linear =   132 [     14238] cuts =  0 [   0]
  --> max chng: dpmx=   1.4117E+00 dtmpmx=   8.5054E-02

== TH FLOW =====================================================================
 Step    102 Time=  4.50000E+00 Dt=  5.00000E-02 [y] snes_conv_reason:    3
  newton =   1 [     108] linear =   136 [     14374] cuts =  0 [   0]
  --> max chng: dpmx=   1.4105E+00 dtmpmx=   8.4415E-02

== TH FLOW =====================================================================
 Step    103 Time=  4.55000E+00 Dt=  5.00000E-02 [y] snes_conv_reason:    3
  newton =   1 [     109] linear =   138 [     14512] cuts =  0 [   0]
  --> max chng: dpmx=   1.4088E+00 dtmpmx=   8.3727E-02

== TH FLOW =====================================================================
 Step    104 Time=  4.60000E+00 Dt=  5.00000E-02 [y] snes_conv_reason:    3
  newton =   1 [     110] linear =   137 [     14649] cuts =  0 [   0]
  --> max chng: dpmx=   1.4069E+00 dtmpmx=   8.3045E-02

== TH FLOW =====================================================================
 Step    105 Time=  4.65000E+00 Dt=  5.00000E-02 [y] snes_conv_reason:    3
  newton =   1 [     111] linear =   133 [     14782] cuts =  0 [   0]
  --> max chng: dpmx=   1.4048E+00 dtmpmx=   8.2820E-02

== TH FLOW =====================================================================
 Step    106 Time=  4.70000E+00 Dt=  5.00000E-02 [y] snes_conv_reason:    3
  newton =   1 [     112] linear =   140 [     14922] cuts =  0 [   0]
  --> max chng: dpmx=   1.4030E+00 dtmpmx=   8.2450E-02

== TH FLOW =====================================================================
 Step    107 Time=  4.75000E+00 Dt=  5.00000E-02 [y] snes_conv_reason:    3
  newton =   1 [     113] linear =   136 [     15058] cuts =  0 [   0]
  --> max chng: dpmx=   1.4022E+00 dtmpmx=   8.1940E-02

== TH FLOW =====================================================================
 Step    108 Time=  4.80000E+00 Dt=  5.00000E-02 [y] snes_conv_reason:    3
  newton =   1 [     114] linear =   137 [     15195] cuts =  0 [   0]
  --> max chng: dpmx=   1.4000E+00 dtmpmx=   8.1297E-02

== TH FLOW =====================================================================
 Step    109 Time=  4.85000E+00 Dt=  5.00000E-02 [y] snes_conv_reason:    3
  newton =   1 [     115] linear =   136 [     15331] cuts =  0 [   0]
  --> max chng: dpmx=   1.3980E+00 dtmpmx=   8.0601E-02

== TH FLOW =====================================================================
 Step    110 Time=  4.90000E+00 Dt=  5.00000E-02 [y] snes_conv_reason:    3
  newton =   1 [     116] linear =   137 [     15468] cuts =  0 [   0]
  --> max chng: dpmx=   1.3961E+00 dtmpmx=   8.0303E-02

== TH FLOW =====================================================================
 Step    111 Time=  4.95000E+00 Dt=  5.00000E-02 [y] snes_conv_reason:    3
  newton =   1 [     117] linear =   137 [     15605] cuts =  0 [   0]
  --> max chng: dpmx=   1.3950E+00 dtmpmx=   8.0033E-02

== TH FLOW =====================================================================
 Step    112 Time=  5.00000E+00 Dt=  5.00000E-02 [y] snes_conv_reason:    3
  newton =   1 [     118] linear =   136 [     15741] cuts =  0 [   0]
  --> max chng: dpmx=   1.3932E+00 dtmpmx=   7.9634E-02

== TH FLOW =====================================================================
 Step    113 Time=  5.05000E+00 Dt=  5.00000E-02 [y] snes_conv_reason:    3
  newton =   1 [     119] linear =   133 [     15874] cuts =  0 [   0]
  --> max chng: dpmx=   1.3909E+00 dtmpmx=   7.9110E-02

== TH FLOW =====================================================================
 Step    114 Time=  5.10000E+00 Dt=  5.00000E-02 [y] snes_conv_reason:    3
  newton =   1 [     120] linear =   135 [     16009] cuts =  0 [   0]
  --> max chng: dpmx=   1.3896E+00 dtmpmx=   7.8466E-02

== TH FLOW =====================================================================
 Step    115 Time=  5.15000E+00 Dt=  5.00000E-02 [y] snes_conv_reason:    3
  newton =   1 [     121] linear =   133 [     16142] cuts =  0 [   0]
  --> max chng: dpmx=   1.3875E+00 dtmpmx=   7.7968E-02

== TH FLOW =====================================================================
 Step    116 Time=  5.20000E+00 Dt=  5.00000E-02 [y] snes_conv_reason:    3
  newton =   1 [     122] linear =   134 [     16276] cuts =  0 [   0]
  --> max chng: dpmx=   1.3869E+00 dtmpmx=   7.7783E-02

== TH FLOW =====================================================================
 Step    117 Time=  5.25000E+00 Dt=  5.00000E-02 [y] snes_conv_reason:    3
  newton =   1 [     123] linear =   135 [     16411] cuts =  0 [   0]
  --> max chng: dpmx=   1.3845E+00 dtmpmx=   7.7478E-02

== TH FLOW =====================================================================
 Step    118 Time=  5.30000E+00 Dt=  5.00000E-02 [y] snes_conv_reason:    3
  newton =   1 [     124] linear =   135 [     16546] cuts =  0 [   0]
  --> max chng: dpmx=   1.3821E+00 dtmpmx=   7.7055E-02

== TH FLOW =====================================================================
 Step    119 Time=  5.35000E+00 Dt=  5.00000E-02 [y] snes_conv_reason:    3
  newton =   1 [     125] linear =   136 [     16682] cuts =  0 [   0]
  --> max chng: dpmx=   1.3813E+00 dtmpmx=   7.6520E-02

== TH FLOW =====================================================================
 Step    120 Time=  5.40000E+00 Dt=  5.00000E-02 [y] snes_conv_reason:    3
  newton =   1 [     126] linear =   129 [     16811] cuts =  0 [   0]
  --> max chng: dpmx=   1.3799E+00 dtmpmx=   7.5879E-02

== TH FLOW =====================================================================
 Step    121 Time=  5.45000E+00 Dt=  5.00000E-02 [y] snes_conv_reason:    3
  newton =   1 [     127] linear =   137 [     16948] cuts =  0 [   0]
  --> max chng: dpmx=   1.3778E+00 dtmpmx=   7.5680E-02

== TH FLOW =====================================================================
 Step    122 Time=  5.50000E+00 Dt=  5.00000E-02 [y] snes_conv_reason:    3
  newton =   1 [     128] linear =   130 [     17078] cuts =  0 [   0]
  --> max chng: dpmx=   1.3760E+00 dtmpmx=   7.5456E-02

== TH FLOW =====================================================================
 Step    123 Time=  5.55000E+00 Dt=  5.00000E-02 [y] snes_conv_reason:    3
  newton =   1 [     129] linear =   133 [     17211] cuts =  0 [   0]
  --> max chng: dpmx=   1.3742E+00 dtmpmx=   7.5122E-02

== TH FLOW =====================================================================
 Step    124 Time=  5.60000E+00 Dt=  5.00000E-02 [y] snes_conv_reason:    3
  newton =   1 [     130] linear =   133 [     17344] cuts =  0 [   0]
  --> max chng: dpmx=   1.3732E+00 dtmpmx=   7.4682E-02

== TH FLOW =====================================================================
 Step    125 Time=  5.65000E+00 Dt=  5.00000E-02 [y] snes_conv_reason:    3
  newton =   1 [     131] linear =   131 [     17475] cuts =  0 [   0]
  --> max chng: dpmx=   1.3713E+00 dtmpmx=   7.4140E-02

== TH FLOW =====================================================================
 Step    126 Time=  5.70000E+00 Dt=  5.00000E-02 [y] snes_conv_reason:    3
  newton =   1 [     132] linear =   134 [     17609] cuts =  0 [   0]
  --> max chng: dpmx=   1.3694E+00 dtmpmx=   7.3708E-02

== TH FLOW =====================================================================
 Step    127 Time=  5.75000E+00 Dt=  5.00000E-02 [y] snes_conv_reason:    3
  newton =   1 [     133] linear =   135 [     17744] cuts =  0 [   0]
  --> max chng: dpmx=   1.3674E+00 dtmpmx=   7.3553E-02

== TH FLOW =====================================================================
 Step    128 Time=  5.80000E+00 Dt=  5.00000E-02 [y] snes_conv_reason:    3
  newton =   1 [     134] linear =   134 [     17878] cuts =  0 [   0]
  --> max chng: dpmx=   1.3665E+00 dtmpmx=   7.3296E-02

== TH FLOW =====================================================================
 Step    129 Time=  5.85000E+00 Dt=  5.00000E-02 [y] snes_conv_reason:    3
  newton =   1 [     135] linear =   134 [     18012] cuts =  0 [   0]
  --> max chng: dpmx=   1.3646E+00 dtmpmx=   7.2940E-02

== TH FLOW =====================================================================
 Step    130 Time=  5.90000E+00 Dt=  5.00000E-02 [y] snes_conv_reason:    3
  newton =   1 [     136] linear =   134 [     18146] cuts =  0 [   0]
  --> max chng: dpmx=   1.3629E+00 dtmpmx=   7.2487E-02

== TH FLOW =====================================================================
 Step    131 Time=  5.95000E+00 Dt=  5.00000E-02 [y] snes_conv_reason:    3
  newton =   1 [     137] linear =   133 [     18279] cuts =  0 [   0]
  --> max chng: dpmx=   1.3610E+00 dtmpmx=   7.1941E-02

== TH FLOW =====================================================================
 Step    132 Time=  6.00000E+00 Dt=  5.00000E-02 [y] snes_conv_reason:    3
  newton =   1 [     138] linear =   132 [     18411] cuts =  0 [   0]
  --> max chng: dpmx=   1.3597E+00 dtmpmx=   7.1760E-02

== TH FLOW =====================================================================
 Step    133 Time=  6.05000E+00 Dt=  5.00000E-02 [y] snes_conv_reason:    3
  newton =   1 [     139] linear =   134 [     18545] cuts =  0 [   0]
  --> max chng: dpmx=   1.3583E+00 dtmpmx=   7.1570E-02

== TH FLOW =====================================================================
 Step    134 Time=  6.10000E+00 Dt=  5.00000E-02 [y] snes_conv_reason:    3
  newton =   1 [     140] linear =   134 [     18679] cuts =  0 [   0]
  --> max chng: dpmx=   1.3568E+00 dtmpmx=   7.1286E-02

== TH FLOW =====================================================================
 Step    135 Time=  6.15000E+00 Dt=  5.00000E-02 [y] snes_conv_reason:    3
  newton =   1 [     141] linear =   136 [     18815] cuts =  0 [   0]
  --> max chng: dpmx=   1.3543E+00 dtmpmx=   7.0911E-02

== TH FLOW =====================================================================
 Step    136 Time=  6.20000E+00 Dt=  5.00000E-02 [y] snes_conv_reason:    3
  newton =   1 [     142] linear =   133 [     18948] cuts =  0 [   0]
  --> max chng: dpmx=   1.3528E+00 dtmpmx=   7.0448E-02

== TH FLOW =====================================================================
 Step    137 Time=  6.25000E+00 Dt=  5.00000E-02 [y] snes_conv_reason:    3
  newton =   1 [     143] linear =   134 [     19082] cuts =  0 [   0]
  --> max chng: dpmx=   1.3520E+00 dtmpmx=   7.0064E-02

== TH FLOW =====================================================================
 Step    138 Time=  6.30000E+00 Dt=  5.00000E-02 [y] snes_conv_reason:    3
  newton =   1 [     144] linear =   134 [     19216] cuts =  0 [   0]
  --> max chng: dpmx=   1.3499E+00 dtmpmx=   6.9934E-02

== TH FLOW =====================================================================
 Step    139 Time=  6.35000E+00 Dt=  5.00000E-02 [y] snes_conv_reason:    3
  newton =   1 [     145] linear =   136 [     19352] cuts =  0 [   0]
  --> max chng: dpmx=   1.3486E+00 dtmpmx=   6.9714E-02

== TH FLOW =====================================================================
 Step    140 Time=  6.40000E+00 Dt=  5.00000E-02 [y] snes_conv_reason:    3
  newton =   1 [     146] linear =   136 [     19488] cuts =  0 [   0]
  --> max chng: dpmx=   1.3462E+00 dtmpmx=   6.9408E-02

== TH FLOW =====================================================================
 Step    141 Time=  6.45000E+00 Dt=  5.00000E-02 [y] snes_conv_reason:    3
  newton =   1 [     147] linear =   134 [     19622] cuts =  0 [   0]
  --> max chng: dpmx=   1.3453E+00 dtmpmx=   6.9018E-02

== TH FLOW =====================================================================
 Step    142 Time=  6.50000E+00 Dt=  5.00000E-02 [y] snes_conv_reason:    3
  newton =   1 [     148] linear =   136 [     19758] cuts =  0 [   0]
  --> max chng: dpmx=   1.3436E+00 dtmpmx=   6.8547E-02

== TH FLOW =====================================================================
 Step    143 Time=  6.55000E+00 Dt=  5.00000E-02 [y] snes_conv_reason:    3
  newton =   1 [     149] linear =   136 [     19894] cuts =  0 [   0]
  --> max chng: dpmx=   1.3419E+00 dtmpmx=   6.8380E-02

== TH FLOW =====================================================================
 Step    144 Time=  6.60000E+00 Dt=  5.00000E-02 [y] snes_conv_reason:    3
  newton =   1 [     150] linear =   136 [     20030] cuts =  0 [   0]
  --> max chng: dpmx=   1.3401E+00 dtmpmx=   6.8217E-02

== TH FLOW =====================================================================
 Step    145 Time=  6.65000E+00 Dt=  5.00000E-02 [y] snes_conv_reason:    3
  newton =   1 [     151] linear =   136 [     20166] cuts =  0 [   0]
  --> max chng: dpmx=   1.3386E+00 dtmpmx=   6.7972E-02

== TH FLOW =====================================================================
 Step    146 Time=  6.70000E+00 Dt=  5.00000E-02 [y] snes_conv_reason:    3
  newton =   1 [     152] linear =   136 [     20302] cuts =  0 [   0]
  --> max chng: dpmx=   1.3370E+00 dtmpmx=   6.7647E-02

== TH FLOW =====================================================================
 Step    147 Time=  6.75000E+00 Dt=  5.00000E-02 [y] snes_conv_reason:    3
  newton =   1 [     153] linear =   132 [     20434] cuts =  0 [   0]
  --> max chng: dpmx=   1.3355E+00 dtmpmx=   6.7246E-02

== TH FLOW =====================================================================
 Step    148 Time=  6.80000E+00 Dt=  5.00000E-02 [y] snes_conv_reason:    3
  newton =   1 [     154] linear =   140 [     20574] cuts =  0 [   0]
  --> max chng: dpmx=   1.3340E+00 dtmpmx=   6.6901E-02

== TH FLOW =====================================================================
 Step    149 Time=  6.85000E+00 Dt=  5.00000E-02 [y] snes_conv_reason:    3
  newton =   1 [     155] linear =   137 [     20711] cuts =  0 [   0]
  --> max chng: dpmx=   1.3318E+00 dtmpmx=   6.6789E-02

== TH FLOW =====================================================================
 Step    150 Time=  6.90000E+00 Dt=  5.00000E-02 [y] snes_conv_reason:    3
  newton =   1 [     156] linear =   130 [     20841] cuts =  0 [   0]
  --> max chng: dpmx=   1.3311E+00 dtmpmx=   6.6599E-02

== TH FLOW =====================================================================
 Step    151 Time=  6.95000E+00 Dt=  5.00000E-02 [y] snes_conv_reason:    3
  newton =   1 [     157] linear =   132 [     20973] cuts =  0 [   0]
  --> max chng: dpmx=   1.3290E+00 dtmpmx=   6.6332E-02

== TH FLOW =====================================================================
 Step    152 Time=  7.00000E+00 Dt=  5.00000E-02 [y] snes_conv_reason:    3
  newton =   1 [     158] linear =   133 [     21106] cuts =  0 [   0]
  --> max chng: dpmx=   1.3278E+00 dtmpmx=   6.5992E-02

== TH FLOW =====================================================================
 Step    153 Time=  7.05000E+00 Dt=  5.00000E-02 [y] snes_conv_reason:    3
  newton =   1 [     159] linear =   133 [     21239] cuts =  0 [   0]
  --> max chng: dpmx=   1.3256E+00 dtmpmx=   6.5580E-02

== TH FLOW =====================================================================
 Step    154 Time=  7.10000E+00 Dt=  5.00000E-02 [y] snes_conv_reason:    3
  newton =   1 [     160] linear =   128 [     21367] cuts =  0 [   0]
  --> max chng: dpmx=   1.3243E+00 dtmpmx=   6.5424E-02

== TH FLOW =====================================================================
 Step    155 Time=  7.15000E+00 Dt=  5.00000E-02 [y] snes_conv_reason:    3
  newton =   1 [     161] linear =   126 [     21493] cuts =  0 [   0]
  --> max chng: dpmx=   1.3224E+00 dtmpmx=   6.5283E-02

== TH FLOW =====================================================================
 Step    156 Time=  7.20000E+00 Dt=  5.00000E-02 [y] snes_conv_reason:    3
  newton =   1 [     162] linear =   137 [     21630] cuts =  0 [   0]
  --> max chng: dpmx=   1.3215E+00 dtmpmx=   6.5069E-02

== TH FLOW =====================================================================
 Step    157 Time=  7.25000E+00 Dt=  5.00000E-02 [y] snes_conv_reason:    3
  newton =   1 [     163] linear =   134 [     21764] cuts =  0 [   0]
  --> max chng: dpmx=   1.3191E+00 dtmpmx=   6.4784E-02

== TH FLOW =====================================================================
 Step    158 Time=  7.30000E+00 Dt=  5.00000E-02 [y] snes_conv_reason:    3
  newton =   1 [     164] linear =   133 [     21897] cuts =  0 [   0]
  --> max chng: dpmx=   1.3183E+00 dtmpmx=   6.4431E-02

== TH FLOW =====================================================================
 Step    159 Time=  7.35000E+00 Dt=  5.00000E-02 [y] snes_conv_reason:    3
  newton =   1 [     165] linear =   135 [     22032] cuts =  0 [   0]
  --> max chng: dpmx=   1.3165E+00 dtmpmx=   6.4119E-02

== TH FLOW =====================================================================
 Step    160 Time=  7.40000E+00 Dt=  5.00000E-02 [y] snes_conv_reason:    3
  newton =   1 [     166] linear =   135 [     22167] cuts =  0 [   0]
  --> max chng: dpmx=   1.3148E+00 dtmpmx=   6.4021E-02

== TH FLOW =====================================================================
 Step    161 Time=  7.45000E+00 Dt=  5.00000E-02 [y] snes_conv_reason:    3
  newton =   1 [     167] linear =   134 [     22301] cuts =  0 [   0]
  --> max chng: dpmx=   1.3133E+00 dtmpmx=   6.3854E-02

== TH FLOW =====================================================================
 Step    162 Time=  7.50000E+00 Dt=  5.00000E-02 [y] snes_conv_reason:    3
  newton =   1 [     168] linear =   133 [     22434] cuts =  0 [   0]
  --> max chng: dpmx=   1.3114E+00 dtmpmx=   6.3620E-02

== TH FLOW =====================================================================
 Step    163 Time=  7.55000E+00 Dt=  5.00000E-02 [y] snes_conv_reason:    3
  newton =   1 [     169] linear =   131 [     22565] cuts =  0 [   0]
  --> max chng: dpmx=   1.3097E+00 dtmpmx=   6.3320E-02

== TH FLOW =====================================================================
 Step    164 Time=  7.60000E+00 Dt=  5.00000E-02 [y] snes_conv_reason:    3
  newton =   1 [     170] linear =   130 [     22695] cuts =  0 [   0]
  --> max chng: dpmx=   1.3091E+00 dtmpmx=   6.2956E-02

== TH FLOW =====================================================================
 Step    165 Time=  7.65000E+00 Dt=  5.00000E-02 [y] snes_conv_reason:    3
  newton =   1 [     171] linear =   130 [     22825] cuts =  0 [   0]
  --> max chng: dpmx=   1.3069E+00 dtmpmx=   6.2810E-02

== TH FLOW =====================================================================
 Step    166 Time=  7.70000E+00 Dt=  5.00000E-02 [y] snes_conv_reason:    3
  newton =   1 [     172] linear =   129 [     22954] cuts =  0 [   0]
  --> max chng: dpmx=   1.3052E+00 dtmpmx=   6.2686E-02

== TH FLOW =====================================================================
 Step    167 Time=  7.75000E+00 Dt=  5.00000E-02 [y] snes_conv_reason:    3
  newton =   1 [     173] linear =   138 [     23092] cuts =  0 [   0]
  --> max chng: dpmx=   1.3035E+00 dtmpmx=   6.2496E-02

== TH FLOW =====================================================================
 Step    168 Time=  7.80000E+00 Dt=  5.00000E-02 [y] snes_conv_reason:    3
  newton =   1 [     174] linear =   127 [     23219] cuts =  0 [   0]
  --> max chng: dpmx=   1.3027E+00 dtmpmx=   6.2244E-02

== TH FLOW =====================================================================
 Step    169 Time=  7.85000E+00 Dt=  5.00000E-02 [y] snes_conv_reason:    3
  newton =   1 [     175] linear =   127 [     23346] cuts =  0 [   0]
  --> max chng: dpmx=   1.3008E+00 dtmpmx=   6.1931E-02

== TH FLOW =====================================================================
 Step    170 Time=  7.90000E+00 Dt=  5.00000E-02 [y] snes_conv_reason:    3
  newton =   1 [     176] linear =   134 [     23480] cuts =  0 [   0]
  --> max chng: dpmx=   1.2989E+00 dtmpmx=   6.1646E-02

== TH FLOW =====================================================================
 Step    171 Time=  7.95000E+00 Dt=  5.00000E-02 [y] snes_conv_reason:    3
  newton =   1 [     177] linear =   138 [     23618] cuts =  0 [   0]
  --> max chng: dpmx=   1.2974E+00 dtmpmx=   6.1560E-02

== TH FLOW =====================================================================
 Step    172 Time=  8.00000E+00 Dt=  5.00000E-02 [y] snes_conv_reason:    3
  newton =   1 [     178] linear =   128 [     23746] cuts =  0 [   0]
  --> max chng: dpmx=   1.2962E+00 dtmpmx=   6.1412E-02

== TH FLOW =====================================================================
 Step    173 Time=  8.05000E+00 Dt=  5.00000E-02 [y] snes_conv_reason:    3
  newton =   1 [     179] linear =   132 [     23878] cuts =  0 [   0]
  --> max chng: dpmx=   1.2942E+00 dtmpmx=   6.1203E-02

== TH FLOW =====================================================================
 Step    174 Time=  8.10000E+00 Dt=  5.00000E-02 [y] snes_conv_reason:    3
  newton =   1 [     180] linear =   131 [     24009] cuts =  0 [   0]
  --> max chng: dpmx=   1.2932E+00 dtmpmx=   6.0936E-02

== TH FLOW =====================================================================
 Step    175 Time=  8.15000E+00 Dt=  5.00000E-02 [y] snes_conv_reason:    3
  newton =   1 [     181] linear =   134 [     24143] cuts =  0 [   0]
  --> max chng: dpmx=   1.2912E+00 dtmpmx=   6.0611E-02

== TH FLOW =====================================================================
 Step    176 Time=  8.20000E+00 Dt=  5.00000E-02 [y] snes_conv_reason:    3
  newton =   1 [     182] linear =   135 [     24278] cuts =  0 [   0]
  --> max chng: dpmx=   1.2898E+00 dtmpmx=   6.0475E-02

== TH FLOW =====================================================================
 Step    177 Time=  8.25000E+00 Dt=  5.00000E-02 [y] snes_conv_reason:    3
  newton =   1 [     183] linear =   133 [     24411] cuts =  0 [   0]
  --> max chng: dpmx=   1.2885E+00 dtmpmx=   6.0364E-02

== TH FLOW =====================================================================
 Step    178 Time=  8.30000E+00 Dt=  5.00000E-02 [y] snes_conv_reason:    3
  newton =   1 [     184] linear =   132 [     24543] cuts =  0 [   0]
  --> max chng: dpmx=   1.2867E+00 dtmpmx=   6.0195E-02

== TH FLOW =====================================================================
 Step    179 Time=  8.35000E+00 Dt=  5.00000E-02 [y] snes_conv_reason:    3
  newton =   1 [     185] linear =   135 [     24678] cuts =  0 [   0]
  --> max chng: dpmx=   1.2852E+00 dtmpmx=   5.9970E-02

== TH FLOW =====================================================================
 Step    180 Time=  8.40000E+00 Dt=  5.00000E-02 [y] snes_conv_reason:    3
  newton =   1 [     186] linear =   134 [     24812] cuts =  0 [   0]
  --> max chng: dpmx=   1.2834E+00 dtmpmx=   5.9689E-02

== TH FLOW =====================================================================
 Step    181 Time=  8.45000E+00 Dt=  5.00000E-02 [y] snes_conv_reason:    3
  newton =   1 [     187] linear =   130 [     24942] cuts =  0 [   0]
  --> max chng: dpmx=   1.2817E+00 dtmpmx=   5.9428E-02

== TH FLOW =====================================================================
 Step    182 Time=  8.50000E+00 Dt=  5.00000E-02 [y] snes_conv_reason:    3
  newton =   1 [     188] linear =   135 [     25077] cuts =  0 [   0]
  --> max chng: dpmx=   1.2808E+00 dtmpmx=   5.9351E-02

== TH FLOW =====================================================================
 Step    183 Time=  8.55000E+00 Dt=  5.00000E-02 [y] snes_conv_reason:    3
  newton =   1 [     189] linear =   133 [     25210] cuts =  0 [   0]
  --> max chng: dpmx=   1.2791E+00 dtmpmx=   5.9219E-02

== TH FLOW =====================================================================
 Step    184 Time=  8.60000E+00 Dt=  5.00000E-02 [y] snes_conv_reason:    3
  newton =   1 [     190] linear =   135 [     25345] cuts =  0 [   0]
  --> max chng: dpmx=   1.2775E+00 dtmpmx=   5.9031E-02

== TH FLOW =====================================================================
 Step    185 Time=  8.65000E+00 Dt=  5.00000E-02 [y] snes_conv_reason:    3
  newton =   1 [     191] linear =   136 [     25481] cuts =  0 [   0]
  --> max chng: dpmx=   1.2758E+00 dtmpmx=   5.8791E-02

== TH FLOW =====================================================================
 Step    186 Time=  8.70000E+00 Dt=  5.00000E-02 [y] snes_conv_reason:    3
  newton =   1 [     192] linear =   135 [     25616] cuts =  0 [   0]
  --> max chng: dpmx=   1.2745E+00 dtmpmx=   5.8498E-02

== TH FLOW =====================================================================
 Step    187 Time=  8.75000E+00 Dt=  5.00000E-02 [y] snes_conv_reason:    3
  newton =   1 [     193] linear =   136 [     25752] cuts =  0 [   0]
  --> max chng: dpmx=   1.2730E+00 dtmpmx=   5.8371E-02

== TH FLOW =====================================================================
 Step    188 Time=  8.80000E+00 Dt=  5.00000E-02 [y] snes_conv_reason:    3
  newton =   1 [     194] linear =   126 [     25878] cuts =  0 [   0]
  --> max chng: dpmx=   1.2712E+00 dtmpmx=   5.8272E-02

== TH FLOW =====================================================================
 Step    189 Time=  8.85000E+00 Dt=  5.00000E-02 [y] snes_conv_reason:    3
  newton =   1 [     195] linear =   131 [     26009] cuts =  0 [   0]
  --> max chng: dpmx=   1.2697E+00 dtmpmx=   5.8120E-02

== TH FLOW =====================================================================
 Step    190 Time=  8.90000E+00 Dt=  5.00000E-02 [y] snes_conv_reason:    3
  newton =   1 [     196] linear =   131 [     26140] cuts =  0 [   0]
  --> max chng: dpmx=   1.2679E+00 dtmpmx=   5.7916E-02

== TH FLOW =====================================================================
 Step    191 Time=  8.95000E+00 Dt=  5.00000E-02 [y] snes_conv_reason:    3
  newton =   1 [     197] linear =   133 [     26273] cuts =  0 [   0]
  --> max chng: dpmx=   1.2671E+00 dtmpmx=   5.7662E-02

== TH FLOW =====================================================================
 Step    192 Time=  9.00000E+00 Dt=  5.00000E-02 [y] snes_conv_reason:    3
  newton =   1 [     198] linear =   133 [     26406] cuts =  0 [   0]
  --> max chng: dpmx=   1.2652E+00 dtmpmx=   5.7423E-02

== TH FLOW =====================================================================
 Step    193 Time=  9.05000E+00 Dt=  5.00000E-02 [y] snes_conv_reason:    3
  newton =   1 [     199] linear =   130 [     26536] cuts =  0 [   0]
  --> max chng: dpmx=   1.2634E+00 dtmpmx=   5.7353E-02

== TH FLOW =====================================================================
 Step    194 Time=  9.10000E+00 Dt=  5.00000E-02 [y] snes_conv_reason:    3
  newton =   1 [     200] linear =   131 [     26667] cuts =  0 [   0]
  --> max chng: dpmx=   1.2620E+00 dtmpmx=   5.7233E-02

== TH FLOW =====================================================================
 Step    195 Time=  9.15000E+00 Dt=  5.00000E-02 [y] snes_conv_reason:    3
  newton =   1 [     201] linear =   134 [     26801] cuts =  0 [   0]
  --> max chng: dpmx=   1.2606E+00 dtmpmx=   5.7064E-02

== TH FLOW =====================================================================
 Step    196 Time=  9.20000E+00 Dt=  5.00000E-02 [y] snes_conv_reason:    3
  newton =   1 [     202] linear =   135 [     26936] cuts =  0 [   0]
  --> max chng: dpmx=   1.2594E+00 dtmpmx=   5.6846E-02

== TH FLOW =====================================================================
 Step    197 Time=  9.25000E+00 Dt=  5.00000E-02 [y] snes_conv_reason:    3
  newton =   1 [     203] linear =   135 [     27071] cuts =  0 [   0]
  --> max chng: dpmx=   1.2576E+00 dtmpmx=   5.6580E-02

== TH FLOW =====================================================================
 Step    198 Time=  9.30000E+00 Dt=  5.00000E-02 [y] snes_conv_reason:    3
  newton =   1 [     204] linear =   136 [     27207] cuts =  0 [   0]
  --> max chng: dpmx=   1.2559E+00 dtmpmx=   5.6462E-02

== TH FLOW =====================================================================
 Step    199 Time=  9.35000E+00 Dt=  5.00000E-02 [y] snes_conv_reason:    3
  newton =   1 [     205] linear =   132 [     27339] cuts =  0 [   0]
  --> max chng: dpmx=   1.2546E+00 dtmpmx=   5.6372E-02

== TH FLOW =====================================================================
 Step    200 Time=  9.40000E+00 Dt=  5.00000E-02 [y] snes_conv_reason:    3
  newton =   1 [     206] linear =   135 [     27474] cuts =  0 [   0]
  --> max chng: dpmx=   1.2530E+00 dtmpmx=   5.6234E-02

== TH FLOW =====================================================================
 Step    201 Time=  9.45000E+00 Dt=  5.00000E-02 [y] snes_conv_reason:    3
  newton =   1 [     207] linear =   133 [     27607] cuts =  0 [   0]
  --> max chng: dpmx=   1.2517E+00 dtmpmx=   5.6049E-02

== TH FLOW =====================================================================
 Step    202 Time=  9.50000E+00 Dt=  5.00000E-02 [y] snes_conv_reason:    3
  newton =   1 [     208] linear =   126 [     27733] cuts =  0 [   0]
  --> max chng: dpmx=   1.2499E+00 dtmpmx=   5.5818E-02

== TH FLOW =====================================================================
 Step    203 Time=  9.55000E+00 Dt=  5.00000E-02 [y] snes_conv_reason:    3
  newton =   1 [     209] linear =   124 [     27857] cuts =  0 [   0]
  --> max chng: dpmx=   1.2479E+00 dtmpmx=   5.5597E-02

== TH FLOW =====================================================================
 Step    204 Time=  9.60000E+00 Dt=  5.00000E-02 [y] snes_conv_reason:    3
  newton =   1 [     210] linear =   132 [     27989] cuts =  0 [   0]
  --> max chng: dpmx=   1.2472E+00 dtmpmx=   5.5534E-02

== TH FLOW =====================================================================
 Step    205 Time=  9.65000E+00 Dt=  5.00000E-02 [y] snes_conv_reason:    3
  newton =   1 [     211] linear =   132 [     28121] cuts =  0 [   0]
  --> max chng: dpmx=   1.2458E+00 dtmpmx=   5.5425E-02

== TH FLOW =====================================================================
 Step    206 Time=  9.70000E+00 Dt=  5.00000E-02 [y] snes_conv_reason:    3
  newton =   1 [     212] linear =   134 [     28255] cuts =  0 [   0]
  --> max chng: dpmx=   1.2439E+00 dtmpmx=   5.5270E-02

== TH FLOW =====================================================================
 Step    207 Time=  9.75000E+00 Dt=  5.00000E-02 [y] snes_conv_reason:    3
  newton =   1 [     213] linear =   134 [     28389] cuts =  0 [   0]
  --> max chng: dpmx=   1.2422E+00 dtmpmx=   5.5071E-02

== TH FLOW =====================================================================
 Step    208 Time=  9.80000E+00 Dt=  5.00000E-02 [y] snes_conv_reason:    3
  newton =   1 [     214] linear =   136 [     28525] cuts =  0 [   0]
  --> max chng: dpmx=   1.2408E+00 dtmpmx=   5.4829E-02

== TH FLOW =====================================================================
 Step    209 Time=  9.85000E+00 Dt=  5.00000E-02 [y] snes_conv_reason:    3
  newton =   1 [     215] linear =   134 [     28659] cuts =  0 [   0]
  --> max chng: dpmx=   1.2396E+00 dtmpmx=   5.4719E-02

== TH FLOW =====================================================================
 Step    210 Time=  9.90000E+00 Dt=  5.00000E-02 [y] snes_conv_reason:    3
  newton =   1 [     216] linear =   134 [     28793] cuts =  0 [   0]
  --> max chng: dpmx=   1.2380E+00 dtmpmx=   5.4636E-02

== TH FLOW =====================================================================
 Step    211 Time=  9.95000E+00 Dt=  5.00000E-02 [y] snes_conv_reason:    3
  newton =   1 [     217] linear =   134 [     28927] cuts =  0 [   0]
  --> max chng: dpmx=   1.2363E+00 dtmpmx=   5.4510E-02

== TH FLOW =====================================================================
 Step    212 Time=  1.00000E+01 Dt=  5.00000E-02 [y] snes_conv_reason:    3
  newton =   1 [     218] linear =   134 [     29061] cuts =  0 [   0]
  --> max chng: dpmx=   1.2348E+00 dtmpmx=   5.4340E-02

== TH FLOW =====================================================================
 Step    213 Time=  1.00500E+01 Dt=  5.00000E-02 [y] snes_conv_reason:    3
  newton =   1 [     219] linear =   134 [     29195] cuts =  0 [   0]
  --> max chng: dpmx=   1.2334E+00 dtmpmx=   5.4129E-02

== TH FLOW =====================================================================
 Step    214 Time=  1.01000E+01 Dt=  5.00000E-02 [y] snes_conv_reason:    3
  newton =   1 [     220] linear =   136 [     29331] cuts =  0 [   0]
  --> max chng: dpmx=   1.2318E+00 dtmpmx=   5.3925E-02

== TH FLOW =====================================================================
 Step    215 Time=  1.01500E+01 Dt=  5.00000E-02 [y] snes_conv_reason:    3
  newton =   1 [     221] linear =   128 [     29459] cuts =  0 [   0]
  --> max chng: dpmx=   1.2306E+00 dtmpmx=   5.3867E-02

== TH FLOW =====================================================================
 Step    216 Time=  1.02000E+01 Dt=  5.00000E-02 [y] snes_conv_reason:    3
  newton =   1 [     222] linear =   135 [     29594] cuts =  0 [   0]
  --> max chng: dpmx=   1.2283E+00 dtmpmx=   5.3767E-02

== TH FLOW =====================================================================
 Step    217 Time=  1.02500E+01 Dt=  5.00000E-02 [y] snes_conv_reason:    3
  newton =   1 [     223] linear =   133 [     29727] cuts =  0 [   0]
  --> max chng: dpmx=   1.2273E+00 dtmpmx=   5.3625E-02

== TH FLOW =====================================================================
 Step    218 Time=  1.03000E+01 Dt=  5.00000E-02 [y] snes_conv_reason:    3
  newton =   1 [     224] linear =   133 [     29860] cuts =  0 [   0]
  --> max chng: dpmx=   1.2258E+00 dtmpmx=   5.3442E-02

== TH FLOW =====================================================================
 Step    219 Time=  1.03500E+01 Dt=  5.00000E-02 [y] snes_conv_reason:    3
  newton =   1 [     225] linear =   131 [     29991] cuts =  0 [   0]
  --> max chng: dpmx=   1.2246E+00 dtmpmx=   5.3219E-02

== TH FLOW =====================================================================
 Step    220 Time=  1.04000E+01 Dt=  5.00000E-02 [y] snes_conv_reason:    3
  newton =   1 [     226] linear =   131 [     30122] cuts =  0 [   0]
  --> max chng: dpmx=   1.2228E+00 dtmpmx=   5.3118E-02

== TH FLOW =====================================================================
 Step    221 Time=  1.04500E+01 Dt=  5.00000E-02 [y] snes_conv_reason:    3
  newton =   1 [     227] linear =   132 [     30254] cuts =  0 [   0]
  --> max chng: dpmx=   1.2211E+00 dtmpmx=   5.3041E-02

== TH FLOW =====================================================================
 Step    222 Time=  1.05000E+01 Dt=  5.00000E-02 [y] snes_conv_reason:    3
  newton =   1 [     228] linear =   138 [     30392] cuts =  0 [   0]
  --> max chng: dpmx=   1.2202E+00 dtmpmx=   5.2925E-02

== TH FLOW =====================================================================
 Step    223 Time=  1.05500E+01 Dt=  5.00000E-02 [y] snes_conv_reason:    3
  newton =   1 [     229] linear =   137 [     30529] cuts =  0 [   0]
  --> max chng: dpmx=   1.2182E+00 dtmpmx=   5.2769E-02

== TH FLOW =====================================================================
 Step    224 Time=  1.06000E+01 Dt=  5.00000E-02 [y] snes_conv_reason:    3
  newton =   1 [     230] linear =   137 [     30666] cuts =  0 [   0]
  --> max chng: dpmx=   1.2172E+00 dtmpmx=   5.2573E-02

== TH FLOW =====================================================================
 Step    225 Time=  1.06500E+01 Dt=  5.00000E-02 [y] snes_conv_reason:    3
  newton =   1 [     231] linear =   134 [     30800] cuts =  0 [   0]
  --> max chng: dpmx=   1.2153E+00 dtmpmx=   5.2386E-02

== TH FLOW =====================================================================
 Step    226 Time=  1.07000E+01 Dt=  5.00000E-02 [y] snes_conv_reason:    3
  newton =   1 [     232] linear =   136 [     30936] cuts =  0 [   0]
  --> max chng: dpmx=   1.2141E+00 dtmpmx=   5.2332E-02

== TH FLOW =====================================================================
 Step    227 Time=  1.07500E+01 Dt=  5.00000E-02 [y] snes_conv_reason:    3
  newton =   1 [     233] linear =   132 [     31068] cuts =  0 [   0]
  --> max chng: dpmx=   1.2125E+00 dtmpmx=   5.2240E-02

== TH FLOW =====================================================================
 Step    228 Time=  1.08000E+01 Dt=  5.00000E-02 [y] snes_conv_reason:    3
  newton =   1 [     234] linear =   138 [     31206] cuts =  0 [   0]
  --> max chng: dpmx=   1.2108E+00 dtmpmx=   5.2108E-02

== TH FLOW =====================================================================
 Step    229 Time=  1.08500E+01 Dt=  5.00000E-02 [y] snes_conv_reason:    3
  newton =   1 [     235] linear =   129 [     31335] cuts =  0 [   0]
  --> max chng: dpmx=   1.2094E+00 dtmpmx=   5.1939E-02

== TH FLOW =====================================================================
 Step    230 Time=  1.09000E+01 Dt=  5.00000E-02 [y] snes_conv_reason:    3
  newton =   1 [     236] linear =   133 [     31468] cuts =  0 [   0]
  --> max chng: dpmx=   1.2078E+00 dtmpmx=   5.1733E-02

== TH FLOW =====================================================================
 Step    231 Time=  1.09500E+01 Dt=  5.00000E-02 [y] snes_conv_reason:    3
  newton =   1 [     237] linear =   130 [     31598] cuts =  0 [   0]
  --> max chng: dpmx=   1.2064E+00 dtmpmx=   5.1640E-02

== TH FLOW =====================================================================
 Step    232 Time=  1.10000E+01 Dt=  5.00000E-02 [y] snes_conv_reason:    3
  newton =   1 [     238] linear =   132 [     31730] cuts =  0 [   0]
  --> max chng: dpmx=   1.2055E+00 dtmpmx=   5.1569E-02

== TH FLOW =====================================================================
 Step    233 Time=  1.10500E+01 Dt=  5.00000E-02 [y] snes_conv_reason:    3
  newton =   1 [     239] linear =   131 [     31861] cuts =  0 [   0]
  --> max chng: dpmx=   1.2038E+00 dtmpmx=   5.1460E-02

== TH FLOW =====================================================================
 Step    234 Time=  1.11000E+01 Dt=  5.00000E-02 [y] snes_conv_reason:    3
  newton =   1 [     240] linear =   137 [     31998] cuts =  0 [   0]
  --> max chng: dpmx=   1.2020E+00 dtmpmx=   5.1316E-02

== TH FLOW =====================================================================
 Step    235 Time=  1.11500E+01 Dt=  5.00000E-02 [y] snes_conv_reason:    3
  newton =   1 [     241] linear =   136 [     32134] cuts =  0 [   0]
  --> max chng: dpmx=   1.2004E+00 dtmpmx=   5.1135E-02

== TH FLOW =====================================================================
 Step    236 Time=  1.12000E+01 Dt=  5.00000E-02 [y] snes_conv_reason:    3
  newton =   1 [     242] linear =   126 [     32260] cuts =  0 [   0]
  --> max chng: dpmx=   1.1987E+00 dtmpmx=   5.0962E-02

== TH FLOW =====================================================================
 Step    237 Time=  1.12500E+01 Dt=  5.00000E-02 [y] snes_conv_reason:    3
  newton =   1 [     243] linear =   120 [     32380] cuts =  0 [   0]
  --> max chng: dpmx=   1.1978E+00 dtmpmx=   5.0912E-02

== TH FLOW =====================================================================
 Step    238 Time=  1.13000E+01 Dt=  5.00000E-02 [y] snes_conv_reason:    3
  newton =   1 [     244] linear =   131 [     32511] cuts =  0 [   0]
  --> max chng: dpmx=   1.1965E+00 dtmpmx=   5.0825E-02

== TH FLOW =====================================================================
 Step    239 Time=  1.13500E+01 Dt=  5.00000E-02 [y] snes_conv_reason:    3
  newton =   1 [     245] linear =   135 [     32646] cuts =  0 [   0]
  --> max chng: dpmx=   1.1947E+00 dtmpmx=   5.0703E-02

== TH FLOW =====================================================================
 Step    240 Time=  1.14000E+01 Dt=  5.00000E-02 [y] snes_conv_reason:    3
  newton =   1 [     246] linear =   133 [     32779] cuts =  0 [   0]
  --> max chng: dpmx=   1.1932E+00 dtmpmx=   5.0546E-02

== TH FLOW =====================================================================
 Step    241 Time=  1.14500E+01 Dt=  5.00000E-02 [y] snes_conv_reason:    3
  newton =   1 [     247] linear =   129 [     32908] cuts =  0 [   0]
  --> max chng: dpmx=   1.1916E+00 dtmpmx=   5.0355E-02

== TH FLOW =====================================================================
 Step    242 Time=  1.15000E+01 Dt=  5.00000E-02 [y] snes_conv_reason:    3
  newton =   1 [     248] linear =   131 [     33039] cuts =  0 [   0]
  --> max chng: dpmx=   1.1903E+00 dtmpmx=   5.0269E-02

== TH FLOW =====================================================================
 Step    243 Time=  1.15500E+01 Dt=  5.00000E-02 [y] snes_conv_reason:    3
  newton =   1 [     249] linear =   133 [     33172] cuts =  0 [   0]
  --> max chng: dpmx=   1.1889E+00 dtmpmx=   5.0203E-02

== TH FLOW =====================================================================
 Step    244 Time=  1.16000E+01 Dt=  5.00000E-02 [y] snes_conv_reason:    3
  newton =   1 [     250] linear =   131 [     33303] cuts =  0 [   0]
  --> max chng: dpmx=   1.1872E+00 dtmpmx=   5.0102E-02

== TH FLOW =====================================================================
 Step    245 Time=  1.16500E+01 Dt=  5.00000E-02 [y] snes_conv_reason:    3
  newton =   1 [     251] linear =   133 [     33436] cuts =  0 [   0]
  --> max chng: dpmx=   1.1858E+00 dtmpmx=   4.9967E-02

== TH FLOW =====================================================================
 Step    246 Time=  1.17000E+01 Dt=  5.00000E-02 [y] snes_conv_reason:    3
  newton =   1 [     252] linear =   135 [     33571] cuts =  0 [   0]
  --> max chng: dpmx=   1.1843E+00 dtmpmx=   4.9798E-02

== TH FLOW =====================================================================
 Step    247 Time=  1.17500E+01 Dt=  5.00000E-02 [y] snes_conv_reason:    3
  newton =   1 [     253] linear =   131 [     33702] cuts =  0 [   0]
  --> max chng: dpmx=   1.1827E+00 dtmpmx=   4.9640E-02

== TH FLOW =====================================================================
 Step    248 Time=  1.18000E+01 Dt=  5.00000E-02 [y] snes_conv_reason:    3
  newton =   1 [     254] linear =   134 [     33836] cuts =  0 [   0]
  --> max chng: dpmx=   1.1814E+00 dtmpmx=   4.9592E-02

== TH FLOW =====================================================================
 Step    249 Time=  1.18500E+01 Dt=  5.00000E-02 [y] snes_conv_reason:    3
  newton =   1 [     255] linear =   129 [     33965] cuts =  0 [   0]
  --> max chng: dpmx=   1.1801E+00 dtmpmx=   4.9511E-02

== TH FLOW =====================================================================
 Step    250 Time=  1.19000E+01 Dt=  5.00000E-02 [y] snes_conv_reason:    3
  newton =   1 [     256] linear =   128 [     34093] cuts =  0 [   0]
  --> max chng: dpmx=   1.1785E+00 dtmpmx=   4.9397E-02

== TH FLOW =====================================================================
 Step    251 Time=  1.19500E+01 Dt=  5.00000E-02 [y] snes_conv_reason:    3
  newton =   1 [     257] linear =   134 [     34227] cuts =  0 [   0]
  --> max chng: dpmx=   1.1771E+00 dtmpmx=   4.9250E-02

== TH FLOW =====================================================================
 Step    252 Time=  1.20000E+01 Dt=  5.00000E-02 [y] snes_conv_reason:    3
  newton =   1 [     258] linear =   136 [     34363] cuts =  0 [   0]
  --> max chng: dpmx=   1.1755E+00 dtmpmx=   4.9071E-02

== TH FLOW =====================================================================
 Step    253 Time=  1.20500E+01 Dt=  5.00000E-02 [y] snes_conv_reason:    3
  newton =   1 [     259] linear =   140 [     34503] cuts =  0 [   0]
  --> max chng: dpmx=   1.1741E+00 dtmpmx=   4.8993E-02

== TH FLOW =====================================================================
 Step    254 Time=  1.21000E+01 Dt=  5.00000E-02 [y] snes_conv_reason:    3
  newton =   1 [     260] linear =   138 [     34641] cuts =  0 [   0]
  --> max chng: dpmx=   1.1724E+00 dtmpmx=   4.8931E-02

== TH FLOW =====================================================================
 Step    255 Time=  1.21500E+01 Dt=  5.00000E-02 [y] snes_conv_reason:    3
  newton =   1 [     261] linear =   137 [     34778] cuts =  0 [   0]
  --> max chng: dpmx=   1.1714E+00 dtmpmx=   4.8836E-02

== TH FLOW =====================================================================
 Step    256 Time=  1.22000E+01 Dt=  5.00000E-02 [y] snes_conv_reason:    3
  newton =   1 [     262] linear =   130 [     34908] cuts =  0 [   0]
  --> max chng: dpmx=   1.1700E+00 dtmpmx=   4.8709E-02

== TH FLOW =====================================================================
 Step    257 Time=  1.22500E+01 Dt=  5.00000E-02 [y] snes_conv_reason:    3
  newton =   1 [     263] linear =   134 [     35042] cuts =  0 [   0]
  --> max chng: dpmx=   1.1683E+00 dtmpmx=   4.8551E-02

[...]
 Step    493 Time=  2.40500E+01 Dt=  5.00000E-02 [y] snes_conv_reason:   11
  newton =   1 [     499] linear =   121 [     66089] cuts =  0 [   0]
  --> max chng: dpmx=   8.3580E-01 dtmpmx=   3.2929E-02

== TH FLOW =====================================================================
 Step    494 Time=  2.41000E+01 Dt=  5.00000E-02 [y] snes_conv_reason:   11
  newton =   1 [     500] linear =   134 [     66223] cuts =  0 [   0]
  --> max chng: dpmx=   8.3421E-01 dtmpmx=   3.2906E-02

== TH FLOW =====================================================================
 Step    495 Time=  2.41500E+01 Dt=  5.00000E-02 [y] snes_conv_reason:   11
  newton =   1 [     501] linear =   133 [     66356] cuts =  0 [   0]
  --> max chng: dpmx=   8.3300E-01 dtmpmx=   3.2871E-02

== TH FLOW =====================================================================
 Step    496 Time=  2.42000E+01 Dt=  5.00000E-02 [y] snes_conv_reason:   11
  newton =   1 [     502] linear =   124 [     66480] cuts =  0 [   0]
  --> max chng: dpmx=   8.3154E-01 dtmpmx=   3.2825E-02

== TH FLOW =====================================================================
 Step    497 Time=  2.42500E+01 Dt=  5.00000E-02 [y] snes_conv_reason:   11
  newton =   1 [     503] linear =   135 [     66615] cuts =  0 [   0]
  --> max chng: dpmx=   8.3029E-01 dtmpmx=   3.2768E-02

== TH FLOW =====================================================================
 Step    498 Time=  2.43000E+01 Dt=  5.00000E-02 [y] snes_conv_reason:   11
  newton =   1 [     504] linear =   135 [     66750] cuts =  0 [   0]
  --> max chng: dpmx=   8.2895E-01 dtmpmx=   3.2712E-02

== TH FLOW =====================================================================
 Step    499 Time=  2.43500E+01 Dt=  5.00000E-02 [y] snes_conv_reason:   11
  newton =   1 [     505] linear =   133 [     66883] cuts =  0 [   0]
  --> max chng: dpmx=   8.2727E-01 dtmpmx=   3.2693E-02

== TH FLOW =====================================================================
 Step    500 Time=  2.44000E+01 Dt=  5.00000E-02 [y] snes_conv_reason:   11
  newton =   1 [     506] linear =   132 [     67015] cuts =  0 [   0]
  --> max chng: dpmx=   8.2626E-01 dtmpmx=   3.2664E-02

== TH FLOW =====================================================================
 Step    501 Time=  2.44500E+01 Dt=  5.00000E-02 [y] snes_conv_reason:   11
  newton =   1 [     507] linear =   129 [     67144] cuts =  0 [   0]
  --> max chng: dpmx=   8.2472E-01 dtmpmx=   3.2623E-02

== TH FLOW =====================================================================
 Step    502 Time=  2.45000E+01 Dt=  5.00000E-02 [y] snes_conv_reason:   11
  newton =   1 [     508] linear =   128 [     67272] cuts =  0 [   0]
  --> max chng: dpmx=   8.2291E-01 dtmpmx=   3.2572E-02

== TH FLOW =====================================================================
 Step    503 Time=  2.45500E+01 Dt=  5.00000E-02 [y] snes_conv_reason:   11
  newton =   1 [     509] linear =   128 [     67400] cuts =  0 [   0]
  --> max chng: dpmx=   8.2198E-01 dtmpmx=   3.2510E-02

== TH FLOW =====================================================================
 Step    504 Time=  2.46000E+01 Dt=  5.00000E-02 [y] snes_conv_reason:   11
  newton =   1 [     510] linear =   128 [     67528] cuts =  0 [   0]
  --> max chng: dpmx=   8.2016E-01 dtmpmx=   3.2482E-02

== TH FLOW =====================================================================
 Step    505 Time=  2.46500E+01 Dt=  5.00000E-02 [y] snes_conv_reason:   11
  newton =   1 [     511] linear =   130 [     67658] cuts =  0 [   0]
  --> max chng: dpmx=   8.1911E-01 dtmpmx=   3.2458E-02

== TH FLOW =====================================================================
 Step    506 Time=  2.47000E+01 Dt=  5.00000E-02 [y] snes_conv_reason:   11
  newton =   1 [     512] linear =   126 [     67784] cuts =  0 [   0]
  --> max chng: dpmx=   8.1776E-01 dtmpmx=   3.2422E-02

== TH FLOW =====================================================================
 Step    507 Time=  2.47500E+01 Dt=  5.00000E-02 [y] snes_conv_reason:   11
  newton =   1 [     513] linear =   132 [     67916] cuts =  0 [   0]
  --> max chng: dpmx=   8.1617E-01 dtmpmx=   3.2376E-02

== TH FLOW =====================================================================
 Step    508 Time=  2.48000E+01 Dt=  5.00000E-02 [y] snes_conv_reason:   11
  newton =   1 [     514] linear =   132 [     68048] cuts =  0 [   0]
  --> max chng: dpmx=   8.1484E-01 dtmpmx=   3.2320E-02

== TH FLOW =====================================================================
 Step    509 Time=  2.48500E+01 Dt=  5.00000E-02 [y] snes_conv_reason:   11
  newton =   1 [     515] linear =   132 [     68180] cuts =  0 [   0]
  --> max chng: dpmx=   8.1336E-01 dtmpmx=   3.2273E-02

== TH FLOW =====================================================================
 Step    510 Time=  2.49000E+01 Dt=  5.00000E-02 [y] snes_conv_reason:   11
  newton =   1 [     516] linear =   131 [     68311] cuts =  0 [   0]
  --> max chng: dpmx=   8.1208E-01 dtmpmx=   3.2253E-02

== TH FLOW =====================================================================
 Step    511 Time=  2.49500E+01 Dt=  5.00000E-02 [y] snes_conv_reason:   11
  newton =   1 [     517] linear =   124 [     68435] cuts =  0 [   0]
  --> max chng: dpmx=   8.1100E-01 dtmpmx=   3.2222E-02

== TH FLOW =====================================================================
 Step    512 Time=  2.50000E+01 Dt=  5.00000E-02 [y] snes_conv_reason:   11
  newton =   1 [     518] linear =   128 [     68563] cuts =  0 [   0]
  --> max chng: dpmx=   8.0908E-01 dtmpmx=   3.2181E-02

== TH FLOW =====================================================================
 Step    513 Time=  2.50500E+01 Dt=  5.00000E-02 [y] snes_conv_reason:   11
  newton =   1 [     519] linear =   129 [     68692] cuts =  0 [   0]
  --> max chng: dpmx=   8.0809E-01 dtmpmx=   3.2130E-02

== TH FLOW =====================================================================
 Step    514 Time=  2.51000E+01 Dt=  5.00000E-02 [y] snes_conv_reason:   11
  newton =   1 [     520] linear =   129 [     68821] cuts =  0 [   0]
  --> max chng: dpmx=   8.0649E-01 dtmpmx=   3.2068E-02

== TH FLOW =====================================================================
 Step    515 Time=  2.51500E+01 Dt=  5.00000E-02 [y] snes_conv_reason:   11
  newton =   1 [     521] linear =   129 [     68950] cuts =  0 [   0]
  --> max chng: dpmx=   8.0519E-01 dtmpmx=   3.2049E-02

== TH FLOW =====================================================================
 Step    516 Time=  2.52000E+01 Dt=  5.00000E-02 [y] snes_conv_reason:   11
  newton =   1 [     522] linear =   127 [     69077] cuts =  0 [   0]
  --> max chng: dpmx=   8.0336E-01 dtmpmx=   3.2024E-02

== TH FLOW =====================================================================
 Step    517 Time=  2.52500E+01 Dt=  5.00000E-02 [y] snes_conv_reason:   11
  newton =   1 [     523] linear =   124 [     69201] cuts =  0 [   0]
  --> max chng: dpmx=   8.0250E-01 dtmpmx=   3.1988E-02

== TH FLOW =====================================================================
 Step    518 Time=  2.53000E+01 Dt=  5.00000E-02 [y] snes_conv_reason:   11
  newton =   1 [     524] linear =   128 [     69329] cuts =  0 [   0]
  --> max chng: dpmx=   8.0079E-01 dtmpmx=   3.1941E-02

== TH FLOW =====================================================================
 Step    519 Time=  2.53500E+01 Dt=  5.00000E-02 [y] snes_conv_reason:   11
  newton =   1 [     525] linear =   130 [     69459] cuts =  0 [   0]
  --> max chng: dpmx=   7.9949E-01 dtmpmx=   3.1885E-02

== TH FLOW =====================================================================
 Step    520 Time=  2.54000E+01 Dt=  5.00000E-02 [y] snes_conv_reason:   11
  newton =   1 [     526] linear =   122 [     69581] cuts =  0 [   0]
  --> max chng: dpmx=   7.9837E-01 dtmpmx=   3.1847E-02

== TH FLOW =====================================================================
 Step    521 Time=  2.54500E+01 Dt=  5.00000E-02 [y] snes_conv_reason:   11
  newton =   1 [     527] linear =   128 [     69709] cuts =  0 [   0]
  --> max chng: dpmx=   7.9668E-01 dtmpmx=   3.1826E-02

== TH FLOW =====================================================================
 Step    522 Time=  2.55000E+01 Dt=  5.00000E-02 [y] snes_conv_reason:   11
  newton =   1 [     528] linear =   128 [     69837] cuts =  0 [   0]
  --> max chng: dpmx=   7.9528E-01 dtmpmx=   3.1794E-02

== TH FLOW =====================================================================
 Step    523 Time=  2.55500E+01 Dt=  5.00000E-02 [y] snes_conv_reason:   11
  newton =   1 [     529] linear =   128 [     69965] cuts =  0 [   0]
  --> max chng: dpmx=   7.9378E-01 dtmpmx=   3.1753E-02

== TH FLOW =====================================================================
 Step    524 Time=  2.56000E+01 Dt=  5.00000E-02 [y] snes_conv_reason:   11
  newton =   1 [     530] linear =   130 [     70095] cuts =  0 [   0]
  --> max chng: dpmx=   7.9252E-01 dtmpmx=   3.1701E-02

== TH FLOW =====================================================================
 Step    525 Time=  2.56500E+01 Dt=  5.00000E-02 [y] snes_conv_reason:   11
  newton =   1 [     531] linear =   130 [     70225] cuts =  0 [   0]
  --> max chng: dpmx=   7.9114E-01 dtmpmx=   3.1645E-02

== TH FLOW =====================================================================
 Step    526 Time=  2.57000E+01 Dt=  5.00000E-02 [y] snes_conv_reason:   11
  newton =   1 [     532] linear =   130 [     70355] cuts =  0 [   0]
  --> max chng: dpmx=   7.8973E-01 dtmpmx=   3.1629E-02

== TH FLOW =====================================================================
 Step    527 Time=  2.57500E+01 Dt=  5.00000E-02 [y] snes_conv_reason:   11
  newton =   1 [     533] linear =   131 [     70486] cuts =  0 [   0]
  --> max chng: dpmx=   7.8839E-01 dtmpmx=   3.1602E-02

== TH FLOW =====================================================================
 Step    528 Time=  2.58000E+01 Dt=  5.00000E-02 [y] snes_conv_reason:   11
  newton =   1 [     534] linear =   132 [     70618] cuts =  0 [   0]
  --> max chng: dpmx=   7.8704E-01 dtmpmx=   3.1566E-02

== TH FLOW =====================================================================
 Step    529 Time=  2.58500E+01 Dt=  5.00000E-02 [y] snes_conv_reason:   11
  newton =   1 [     535] linear =   131 [     70749] cuts =  0 [   0]
  --> max chng: dpmx=   7.8549E-01 dtmpmx=   3.1519E-02

== TH FLOW =====================================================================
 Step    530 Time=  2.59000E+01 Dt=  5.00000E-02 [y] snes_conv_reason:   11
  newton =   1 [     536] linear =   133 [     70882] cuts =  0 [   0]
  --> max chng: dpmx=   7.8412E-01 dtmpmx=   3.1462E-02

== TH FLOW =====================================================================
 Step    531 Time=  2.59500E+01 Dt=  5.00000E-02 [y] snes_conv_reason:   11
  newton =   1 [     537] linear =   132 [     71014] cuts =  0 [   0]
  --> max chng: dpmx=   7.8276E-01 dtmpmx=   3.1433E-02

== TH FLOW =====================================================================
 Step    532 Time=  2.60000E+01 Dt=  5.00000E-02 [y] snes_conv_reason:   11
  newton =   1 [     538] linear =   131 [     71145] cuts =  0 [   0]
  --> max chng: dpmx=   7.8156E-01 dtmpmx=   3.1411E-02

== TH FLOW =====================================================================
 Step    533 Time=  2.60500E+01 Dt=  5.00000E-02 [y] snes_conv_reason:   11
  newton =   1 [     539] linear =   131 [     71276] cuts =  0 [   0]
  --> max chng: dpmx=   7.7976E-01 dtmpmx=   3.1379E-02

== TH FLOW =====================================================================
 Step    534 Time=  2.61000E+01 Dt=  5.00000E-02 [y] snes_conv_reason:   11
  newton =   1 [     540] linear =   131 [     71407] cuts =  0 [   0]
  --> max chng: dpmx=   7.7862E-01 dtmpmx=   3.1337E-02

== TH FLOW =====================================================================
 Step    535 Time=  2.61500E+01 Dt=  5.00000E-02 [y] snes_conv_reason:   11
  newton =   1 [     541] linear =   131 [     71538] cuts =  0 [   0]
  --> max chng: dpmx=   7.7702E-01 dtmpmx=   3.1285E-02

== TH FLOW =====================================================================
 Step    536 Time=  2.62000E+01 Dt=  5.00000E-02 [y] snes_conv_reason:   11
  newton =   1 [     542] linear =   131 [     71669] cuts =  0 [   0]
  --> max chng: dpmx=   7.7592E-01 dtmpmx=   3.1239E-02

== TH FLOW =====================================================================
 Step    537 Time=  2.62500E+01 Dt=  5.00000E-02 [y] snes_conv_reason:   11
  newton =   1 [     543] linear =   132 [     71801] cuts =  0 [   0]
  --> max chng: dpmx=   7.7429E-01 dtmpmx=   3.1221E-02

== TH FLOW =====================================================================
 Step    538 Time=  2.63000E+01 Dt=  5.00000E-02 [y] snes_conv_reason:   11
  newton =   1 [     544] linear =   132 [     71933] cuts =  0 [   0]
  --> max chng: dpmx=   7.7278E-01 dtmpmx=   3.1193E-02

== TH FLOW =====================================================================
 Step    539 Time=  2.63500E+01 Dt=  5.00000E-02 [y] snes_conv_reason:   11
  newton =   1 [     545] linear =   133 [     72066] cuts =  0 [   0]
  --> max chng: dpmx=   7.7175E-01 dtmpmx=   3.1156E-02

== TH FLOW =====================================================================
 Step    540 Time=  2.64000E+01 Dt=  5.00000E-02 [y] snes_conv_reason:   11
  newton =   1 [     546] linear =   133 [     72199] cuts =  0 [   0]
  --> max chng: dpmx=   7.7034E-01 dtmpmx=   3.1109E-02

== TH FLOW =====================================================================
 Step    541 Time=  2.64500E+01 Dt=  5.00000E-02 [y] snes_conv_reason:   11
  newton =   1 [     547] linear =   134 [     72333] cuts =  0 [   0]
  --> max chng: dpmx=   7.6869E-01 dtmpmx=   3.1052E-02

== TH FLOW =====================================================================
 Step    542 Time=  2.65000E+01 Dt=  5.00000E-02 [y] snes_conv_reason:   11
  newton =   1 [     548] linear =   133 [     72466] cuts =  0 [   0]
  --> max chng: dpmx=   7.6738E-01 dtmpmx=   3.1032E-02

== TH FLOW =====================================================================
 Step    543 Time=  2.65500E+01 Dt=  5.00000E-02 [y] snes_conv_reason:   11
  newton =   1 [     549] linear =   133 [     72599] cuts =  0 [   0]
  --> max chng: dpmx=   7.6570E-01 dtmpmx=   3.1008E-02

== TH FLOW =====================================================================
 Step    544 Time=  2.66000E+01 Dt=  5.00000E-02 [y] snes_conv_reason:   11
  newton =   1 [     550] linear =   126 [     72725] cuts =  0 [   0]
  --> max chng: dpmx=   7.6471E-01 dtmpmx=   3.0975E-02

== TH FLOW =====================================================================
 Step    545 Time=  2.66500E+01 Dt=  5.00000E-02 [y] snes_conv_reason:   11
  newton =   1 [     551] linear =   133 [     72858] cuts =  0 [   0]
  --> max chng: dpmx=   7.6323E-01 dtmpmx=   3.0933E-02

== TH FLOW =====================================================================
 Step    546 Time=  2.67000E+01 Dt=  5.00000E-02 [y] snes_conv_reason:   11
  newton =   1 [     552] linear =   126 [     72984] cuts =  0 [   0]
  --> max chng: dpmx=   7.6203E-01 dtmpmx=   3.0881E-02

== TH FLOW =====================================================================
 Step    547 Time=  2.67500E+01 Dt=  5.00000E-02 [y] snes_conv_reason:   11
  newton =   1 [     553] linear =   126 [     73110] cuts =  0 [   0]
  --> max chng: dpmx=   7.6029E-01 dtmpmx=   3.0843E-02

== TH FLOW =====================================================================
 Step    548 Time=  2.68000E+01 Dt=  5.00000E-02 [y] snes_conv_reason:   11
  newton =   1 [     554] linear =   133 [     73243] cuts =  0 [   0]
  --> max chng: dpmx=   7.5896E-01 dtmpmx=   3.0824E-02

== TH FLOW =====================================================================
 Step    549 Time=  2.68500E+01 Dt=  5.00000E-02 [y] snes_conv_reason:   11
  newton =   1 [     555] linear =   133 [     73376] cuts =  0 [   0]
  --> max chng: dpmx=   7.5739E-01 dtmpmx=   3.0796E-02

== TH FLOW =====================================================================
 Step    550 Time=  2.69000E+01 Dt=  5.00000E-02 [y] snes_conv_reason:   11
  newton =   1 [     556] linear =   133 [     73509] cuts =  0 [   0]
  --> max chng: dpmx=   7.5617E-01 dtmpmx=   3.0758E-02

== TH FLOW =====================================================================
 Step    551 Time=  2.69500E+01 Dt=  5.00000E-02 [y] snes_conv_reason:   11
  newton =   1 [     557] linear =   131 [     73640] cuts =  0 [   0]
  --> max chng: dpmx=   7.5489E-01 dtmpmx=   3.0710E-02

== TH FLOW =====================================================================
 Step    552 Time=  2.70000E+01 Dt=  5.00000E-02 [y] snes_conv_reason:   11
  newton =   1 [     558] linear =   133 [     73773] cuts =  0 [   0]
  --> max chng: dpmx=   7.5325E-01 dtmpmx=   3.0656E-02

== TH FLOW =====================================================================
 Step    553 Time=  2.70500E+01 Dt=  5.00000E-02 [y] snes_conv_reason:   11
  newton =   1 [     559] linear =   128 [     73901] cuts =  0 [   0]
  --> max chng: dpmx=   7.5225E-01 dtmpmx=   3.0641E-02

== TH FLOW =====================================================================
 Step    554 Time=  2.71000E+01 Dt=  5.00000E-02 [y] snes_conv_reason:   11
  newton =   1 [     560] linear =   127 [     74028] cuts =  0 [   0]
  --> max chng: dpmx=   7.5051E-01 dtmpmx=   3.0617E-02

== TH FLOW =====================================================================
 Step    555 Time=  2.71500E+01 Dt=  5.00000E-02 [y] snes_conv_reason:   11
  newton =   1 [     561] linear =   131 [     74159] cuts =  0 [   0]
  --> max chng: dpmx=   7.4906E-01 dtmpmx=   3.0583E-02

== TH FLOW =====================================================================
 Step    556 Time=  2.72000E+01 Dt=  5.00000E-02 [y] snes_conv_reason:   11
  newton =   1 [     562] linear =   133 [     74292] cuts =  0 [   0]
  --> max chng: dpmx=   7.4777E-01 dtmpmx=   3.0540E-02

== TH FLOW =====================================================================
 Step    557 Time=  2.72500E+01 Dt=  5.00000E-02 [y] snes_conv_reason:   11
  newton =   1 [     563] linear =   128 [     74420] cuts =  0 [   0]
  --> max chng: dpmx=   7.4648E-01 dtmpmx=   3.0488E-02

== TH FLOW =====================================================================
 Step    558 Time=  2.73000E+01 Dt=  5.00000E-02 [y] snes_conv_reason:   11
  newton =   1 [     564] linear =   122 [     74542] cuts =  0 [   0]
  --> max chng: dpmx=   7.4474E-01 dtmpmx=   3.0459E-02

== TH FLOW =====================================================================
 Step    559 Time=  2.73500E+01 Dt=  5.00000E-02 [y] snes_conv_reason:   11
  newton =   1 [     565] linear =   133 [     74675] cuts =  0 [   0]
  --> max chng: dpmx=   7.4369E-01 dtmpmx=   3.0439E-02

== TH FLOW =====================================================================
 Step    560 Time=  2.74000E+01 Dt=  5.00000E-02 [y] snes_conv_reason:   11
  newton =   1 [     566] linear =   129 [     74804] cuts =  0 [   0]
  --> max chng: dpmx=   7.4205E-01 dtmpmx=   3.0409E-02

== TH FLOW =====================================================================
 Step    561 Time=  2.74500E+01 Dt=  5.00000E-02 [y] snes_conv_reason:   11
  newton =   1 [     567] linear =   129 [     74933] cuts =  0 [   0]
  --> max chng: dpmx=   7.4088E-01 dtmpmx=   3.0371E-02

== TH FLOW =====================================================================
 Step    562 Time=  2.75000E+01 Dt=  5.00000E-02 [y] snes_conv_reason:   11
  newton =   1 [     568] linear =   128 [     75061] cuts =  0 [   0]
  --> max chng: dpmx=   7.3916E-01 dtmpmx=   3.0323E-02

 Wall Clock Time:  1.9392E+02 [sec]   3.2319E+00 [min]   5.3866E-02 [hr]
