
===================
  PFLOTRAN v3.0.1
===================

 Extent of Gridded Domain
  X: 2.5000000000000000 - 97.500000000000000
  Y: 2.5000000000000000 - 1277.5000000000000
  Z: 2.5000000000000000 - 2.5000000000000000


=+=+=+=+=+=+=+=+=+=+=+=+=+=+=+=+=+=+=+=+=+=+=+=+=+=+=+=+=+=+=+=+=+=+=+=+=+=+=+=+

  Initial Condition

--------------------------------------------------------------------------------
          Flow Condition:   initial
                  Region:   all
--------------------------------------------------------------------------------

  Flow Condition: initial
    Synchronize time with update: no
    Time units: yr
    Length units: m
      Datum:
        Dataset: Unnamed Ascii Dataset
          Type: dataset_ascii_type
          Transient: no
          Array Rank:  3

    Sub Condition: pressure
      Type: hydrostatic
      Gradient:
        Dataset: Unnamed Ascii Dataset
          Type: dataset_ascii_type
          Transient: no
          Array Rank:  3
      Data:
        Dataset: Unnamed Ascii Dataset
          Type: dataset_ascii_type
          Transient: no
          Array Rank:  1

    Sub Condition: temperature
      Type: dirichlet
      Gradient:
      Data:
        Dataset: Unnamed Ascii Dataset
          Type: dataset_ascii_type
          Transient: no
          Array Rank:  1

--------------------------------------------------------------------------------

=+=+=+=+=+=+=+=+=+=+=+=+=+=+=+=+=+=+=+=+=+=+=+=+=+=+=+=+=+=+=+=+=+=+=+=+=+=+=+=+

  Boundary Condition

--------------------------------------------------------------------------------
          Flow Condition:   initial
                  Region:   north
--------------------------------------------------------------------------------

  Flow Condition: initial
    Synchronize time with update: no
    Time units: yr
    Length units: m
      Datum:
        Dataset: Unnamed Ascii Dataset
          Type: dataset_ascii_type
          Transient: no
          Array Rank:  3

    Sub Condition: pressure
      Type: hydrostatic
      Gradient:
        Dataset: Unnamed Ascii Dataset
          Type: dataset_ascii_type
          Transient: no
          Array Rank:  3
      Data:
        Dataset: Unnamed Ascii Dataset
          Type: dataset_ascii_type
          Transient: no
          Array Rank:  1

    Sub Condition: temperature
      Type: dirichlet
      Gradient:
      Data:
        Dataset: Unnamed Ascii Dataset
          Type: dataset_ascii_type
          Transient: no
          Array Rank:  1

--------------------------------------------------------------------------------

=+=+=+=+=+=+=+=+=+=+=+=+=+=+=+=+=+=+=+=+=+=+=+=+=+=+=+=+=+=+=+=+=+=+=+=+=+=+=+=+

  Boundary Condition

--------------------------------------------------------------------------------
          Flow Condition:   initial
                  Region:   south
--------------------------------------------------------------------------------

  Flow Condition: initial
    Synchronize time with update: no
    Time units: yr
    Length units: m
      Datum:
        Dataset: Unnamed Ascii Dataset
          Type: dataset_ascii_type
          Transient: no
          Array Rank:  3

    Sub Condition: pressure
      Type: hydrostatic
      Gradient:
        Dataset: Unnamed Ascii Dataset
          Type: dataset_ascii_type
          Transient: no
          Array Rank:  3
      Data:
        Dataset: Unnamed Ascii Dataset
          Type: dataset_ascii_type
          Transient: no
          Array Rank:  1

    Sub Condition: temperature
      Type: dirichlet
      Gradient:
      Data:
        Dataset: Unnamed Ascii Dataset
          Type: dataset_ascii_type
          Transient: no
          Array Rank:  1

--------------------------------------------------------------------------------

=+=+=+=+=+=+=+=+=+=+=+=+=+=+=+=+=+=+=+=+=+=+=+=+=+=+=+=+=+=+=+=+=+=+=+=+=+=+=+=+

  Source Sink

--------------------------------------------------------------------------------
          Flow Condition:   injection
                  Region:   heatpump_inject0
--------------------------------------------------------------------------------

  Flow Condition: injection
    Synchronize time with update: no
    Time units: yr
    Length units: m
      Datum:

    Sub Condition: rate
      Type: scaled volumetric rate
      Gradient:
      Data:
        Dataset: Unnamed Ascii Dataset
          Type: dataset_ascii_type
          Is transient?: yes
          Number of times:      3
          Is cyclic?: no
          Buffer:
            Rank:  2
            Dims:    1   3
            Buffer Slice Size:   0
          Array Rank:  1

    Sub Condition: temperature
      Type: dirichlet
      Gradient:
      Data:
        Dataset: Unnamed Ascii Dataset
          Type: dataset_ascii_type
          Transient: no
          Array Rank:  1

--------------------------------------------------------------------------------

 Requested processors =    32

FLOW Time Stepper
                 acceleration: on
       acceleration threshold: 5
       number of ramp entries: 5
                ramp entry #1: 2.0000
                ramp entry #2: 2.0000
                ramp entry #3: 2.0000
                ramp entry #4: 2.0000
                ramp entry #5: 2.0000
                ramp entry #6: 1.8000
                ramp entry #7: 1.6000
                ramp entry #8: 1.4000
                ramp entry #9: 1.2000
               ramp entry #10: 1.0000
               ramp entry #11: 1.0000
               ramp entry #12: 1.0000
               ramp entry #13: 1.0000
      maximum number of steps: 999999
constant time steps threshold: 5
       maximum number of cuts: 16
             reduction factor: 5.000000E-01
        maximum growth factor: 2.000000E+00

FLOW Newton Solver
                         atol: 1.000000E-50
                         rtol: 1.000000E-03
                         stol: 1.000000E-08
                         dtol: 1.000000E+04
                      maxnorm: 1.000000E+20
                    inftolres: -9.990000E+02
                    inftolupd: 1.000000E+00
                 inftolrelupd: -9.990000E+02
                 inftolsclres: -9.990000E+02
                     max iter: 50
                     min iter: 1
                         maxf: 10000
                  matrix type: baij
         precond. matrix type: baij
               inexact newton: off
            print convergence: on
   print detailed convergence: off
          check infinity norm: on

FLOW Linear Solver
                       solver: bcgs
               preconditioner: bjacobi
                         atol: 1.000000E-50
                         rtol: 1.000000E-05
                         dtol: 1.000000E+04
            maximum iteration: 10000

== TH FLOW =====================================================================
 Step      1 Time=  1.00000E-05 Dt=  1.00000E-05 [y] snes_conv_reason:   11
  newton =   1 [       1] linear =   104 [       104] cuts =  0 [   0]
  --> max chng: dpmx=   3.5073E-02 dtmpmx=   1.3460E-09

== TH FLOW =====================================================================
 Step      2 Time=  3.00000E-05 Dt=  2.00000E-05 [y] snes_conv_reason:   11
  newton =   1 [       2] linear =   111 [       215] cuts =  0 [   0]
  --> max chng: dpmx=   4.2598E-02 dtmpmx=   2.6576E-09

== TH FLOW =====================================================================
 Step      3 Time=  7.00000E-05 Dt=  4.00000E-05 [y] snes_conv_reason:   11
  newton =   1 [       3] linear =   118 [       333] cuts =  0 [   0]
  --> max chng: dpmx=   3.4399E-02 dtmpmx=   5.2517E-09

== TH FLOW =====================================================================
 Step      4 Time=  1.50000E-04 Dt=  8.00000E-05 [y] snes_conv_reason:   11
  newton =   1 [       4] linear =   120 [       453] cuts =  0 [   0]
  --> max chng: dpmx=   1.7077E-02 dtmpmx=   1.0439E-08

== TH FLOW =====================================================================
 Step      5 Time=  3.10000E-04 Dt=  1.60000E-04 [y] snes_conv_reason:   11
  newton =   1 [       5] linear =   106 [       559] cuts =  0 [   0]
  --> max chng: dpmx=   4.8236E-03 dtmpmx=   2.0840E-08

== TH FLOW =====================================================================
 Step      6 Time=  6.30000E-04 Dt=  3.20000E-04 [y] snes_conv_reason:   11
  newton =   1 [       6] linear =   118 [       677] cuts =  0 [   0]
  --> max chng: dpmx=   7.3257E-04 dtmpmx=   4.1670E-08

== TH FLOW =====================================================================
 Step      7 Time=  1.27000E-03 Dt=  6.40000E-04 [y] snes_conv_reason:   11
  newton =   1 [       7] linear =   132 [       809] cuts =  0 [   0]
  --> max chng: dpmx=   5.7658E-05 dtmpmx=   8.3341E-08

== TH FLOW =====================================================================
 Step      8 Time=  2.55000E-03 Dt=  1.28000E-03 [y] snes_conv_reason:   11
  newton =   1 [       8] linear =   113 [       922] cuts =  0 [   0]
  --> max chng: dpmx=   1.9826E-06 dtmpmx=   1.6668E-07

== TH FLOW =====================================================================
 Step      9 Time=  5.11000E-03 Dt=  2.56000E-03 [y] snes_conv_reason:   11
  newton =   1 [       9] linear =   117 [      1039] cuts =  0 [   0]
  --> max chng: dpmx=   1.4212E-06 dtmpmx=   3.3336E-07

== TH FLOW =====================================================================
 Step     10 Time=  1.02300E-02 Dt=  5.12000E-03 [y] snes_conv_reason:   11
  newton =   1 [      10] linear =   126 [      1165] cuts =  0 [   0]
  --> max chng: dpmx=   2.8999E-06 dtmpmx=   6.6672E-07

== TH FLOW =====================================================================
 Step     11 Time=  2.04700E-02 Dt=  1.02400E-02 [y] snes_conv_reason:   11
  newton =   1 [      11] linear =   122 [      1287] cuts =  0 [   0]
  --> max chng: dpmx=   6.0127E-06 dtmpmx=   1.3334E-06

== TH FLOW =====================================================================
 Step     12 Time=  4.09500E-02 Dt=  2.04800E-02 [y] snes_conv_reason:   11
  newton =   1 [      12] linear =   123 [      1410] cuts =  0 [   0]
  --> max chng: dpmx=   1.2870E-05 dtmpmx=   2.6669E-06

== TH FLOW =====================================================================
 Step     13 Time=  8.19100E-02 Dt=  4.09600E-02 [y] snes_conv_reason:   11
  newton =   1 [      13] linear =   126 [      1536] cuts =  0 [   0]
  --> max chng: dpmx=   2.9108E-05 dtmpmx=   5.3338E-06

== TH FLOW =====================================================================
 Step     14 Time=  1.00000E-01 Dt=  1.80900E-02 [y] snes_conv_reason:   11
  newton =   1 [      14] linear =   126 [      1662] cuts =  0 [   0]
  --> max chng: dpmx=   1.3527E-05 dtmpmx=   2.3557E-06

== TH FLOW =====================================================================
 Step     15 Time=  1.50000E-01 Dt=  5.00000E-02 [y] snes_conv_reason:   11
  newton =   1 [      15] linear =   111 [      1773] cuts =  0 [   0]
  --> max chng: dpmx=   4.2390E-05 dtmpmx=   6.5110E-06

== TH FLOW =====================================================================
 Step     16 Time=  2.00000E-01 Dt=  5.00000E-02 [y] snes_conv_reason:   11
  newton =   1 [      16] linear =   127 [      1900] cuts =  0 [   0]
  --> max chng: dpmx=   4.7319E-05 dtmpmx=   6.5110E-06

== TH FLOW =====================================================================
 Step     17 Time=  2.50000E-01 Dt=  5.00000E-02 [y] snes_conv_reason:    3
  newton =   3 [      19] linear =   391 [      2291] cuts =  0 [   0]
  --> max chng: dpmx=   3.0133E+03 dtmpmx=   3.5127E+00

== TH FLOW =====================================================================
 Step     18 Time=  3.00000E-01 Dt=  5.00000E-02 [y] snes_conv_reason:   11
  newton =   2 [      21] linear =   265 [      2556] cuts =  0 [   0]
  --> max chng: dpmx=   1.8670E+01 dtmpmx=   1.2829E+00

== TH FLOW =====================================================================
 Step     19 Time=  3.50000E-01 Dt=  5.00000E-02 [y] snes_conv_reason:   11
  newton =   2 [      23] linear =   272 [      2828] cuts =  0 [   0]
  --> max chng: dpmx=   9.3828E+00 dtmpmx=   8.5970E-01

== TH FLOW =====================================================================
 Step     20 Time=  4.00000E-01 Dt=  5.00000E-02 [y] snes_conv_reason:   11
  newton =   2 [      25] linear =   268 [      3096] cuts =  0 [   0]
  --> max chng: dpmx=   5.7024E+00 dtmpmx=   6.7665E-01

== TH FLOW =====================================================================
 Step     21 Time=  4.50000E-01 Dt=  5.00000E-02 [y] snes_conv_reason:   11
  newton =   2 [      27] linear =   253 [      3349] cuts =  0 [   0]
  --> max chng: dpmx=   4.0569E+00 dtmpmx=   5.6715E-01

== TH FLOW =====================================================================
 Step     22 Time=  5.00000E-01 Dt=  5.00000E-02 [y] snes_conv_reason:    3
  newton =   1 [      28] linear =   130 [      3479] cuts =  0 [   0]
  --> max chng: dpmx=   3.1763E+00 dtmpmx=   4.8371E-01

== TH FLOW =====================================================================
 Step     23 Time=  5.50000E-01 Dt=  5.00000E-02 [y] snes_conv_reason:    3
  newton =   1 [      29] linear =   135 [      3614] cuts =  0 [   0]
  --> max chng: dpmx=   2.9951E+00 dtmpmx=   4.4515E-01

== TH FLOW =====================================================================
 Step     24 Time=  6.00000E-01 Dt=  5.00000E-02 [y] snes_conv_reason:    3
  newton =   1 [      30] linear =   140 [      3754] cuts =  0 [   0]
  --> max chng: dpmx=   2.8989E+00 dtmpmx=   3.9452E-01

== TH FLOW =====================================================================
 Step     25 Time=  6.50000E-01 Dt=  5.00000E-02 [y] snes_conv_reason:    3
  newton =   1 [      31] linear =   139 [      3893] cuts =  0 [   0]
  --> max chng: dpmx=   2.8310E+00 dtmpmx=   3.6072E-01

== TH FLOW =====================================================================
 Step     26 Time=  7.00000E-01 Dt=  5.00000E-02 [y] snes_conv_reason:    3
  newton =   1 [      32] linear =   132 [      4025] cuts =  0 [   0]
  --> max chng: dpmx=   2.7823E+00 dtmpmx=   3.4210E-01

== TH FLOW =====================================================================
 Step     27 Time=  7.50000E-01 Dt=  5.00000E-02 [y] snes_conv_reason:    3
  newton =   1 [      33] linear =   143 [      4168] cuts =  0 [   0]
  --> max chng: dpmx=   2.7181E+00 dtmpmx=   3.1666E-01

== TH FLOW =====================================================================
 Step     28 Time=  8.00000E-01 Dt=  5.00000E-02 [y] snes_conv_reason:    3
  newton =   1 [      34] linear =   140 [      4308] cuts =  0 [   0]
  --> max chng: dpmx=   2.6899E+00 dtmpmx=   2.8978E-01

== TH FLOW =====================================================================
 Step     29 Time=  8.50000E-01 Dt=  5.00000E-02 [y] snes_conv_reason:    3
  newton =   1 [      35] linear =   133 [      4441] cuts =  0 [   0]
  --> max chng: dpmx=   2.6563E+00 dtmpmx=   2.8186E-01

== TH FLOW =====================================================================
 Step     30 Time=  9.00000E-01 Dt=  5.00000E-02 [y] snes_conv_reason:    3
  newton =   1 [      36] linear =   137 [      4578] cuts =  0 [   0]
  --> max chng: dpmx=   2.6094E+00 dtmpmx=   2.6926E-01

== TH FLOW =====================================================================
 Step     31 Time=  9.50000E-01 Dt=  5.00000E-02 [y] snes_conv_reason:    3
  newton =   1 [      37] linear =   139 [      4717] cuts =  0 [   0]
  --> max chng: dpmx=   2.5963E+00 dtmpmx=   2.5331E-01

== TH FLOW =====================================================================
 Step     32 Time=  1.00000E+00 Dt=  5.00000E-02 [y] snes_conv_reason:    3
  newton =   1 [      38] linear =   138 [      4855] cuts =  0 [   0]
  --> max chng: dpmx=   2.5721E+00 dtmpmx=   2.3991E-01

== TH FLOW =====================================================================
 Step     33 Time=  1.05000E+00 Dt=  5.00000E-02 [y] snes_conv_reason:    3
  newton =   1 [      39] linear =   138 [      4993] cuts =  0 [   0]
  --> max chng: dpmx=   2.5378E+00 dtmpmx=   2.3455E-01

== TH FLOW =====================================================================
 Step     34 Time=  1.10000E+00 Dt=  5.00000E-02 [y] snes_conv_reason:    3
  newton =   1 [      40] linear =   133 [      5126] cuts =  0 [   0]
  --> max chng: dpmx=   2.5281E+00 dtmpmx=   2.2642E-01

== TH FLOW =====================================================================
 Step     35 Time=  1.15000E+00 Dt=  5.00000E-02 [y] snes_conv_reason:    3
  newton =   1 [      41] linear =   134 [      5260] cuts =  0 [   0]
  --> max chng: dpmx=   2.5108E+00 dtmpmx=   2.1613E-01

== TH FLOW =====================================================================
 Step     36 Time=  1.20000E+00 Dt=  5.00000E-02 [y] snes_conv_reason:    3
  newton =   1 [      42] linear =   137 [      5397] cuts =  0 [   0]
  --> max chng: dpmx=   2.4867E+00 dtmpmx=   2.0649E-01

== TH FLOW =====================================================================
 Step     37 Time=  1.25000E+00 Dt=  5.00000E-02 [y] snes_conv_reason:    3
  newton =   1 [      43] linear =   137 [      5534] cuts =  0 [   0]
  --> max chng: dpmx=   2.4759E+00 dtmpmx=   2.0321E-01

== TH FLOW =====================================================================
 Step     38 Time=  1.30000E+00 Dt=  5.00000E-02 [y] snes_conv_reason:    3
  newton =   1 [      44] linear =   139 [      5673] cuts =  0 [   0]
  --> max chng: dpmx=   2.4637E+00 dtmpmx=   1.9802E-01

== TH FLOW =====================================================================
 Step     39 Time=  1.35000E+00 Dt=  5.00000E-02 [y] snes_conv_reason:    3
  newton =   1 [      45] linear =   139 [      5812] cuts =  0 [   0]
  --> max chng: dpmx=   2.4459E+00 dtmpmx=   1.9126E-01

== TH FLOW =====================================================================
 Step     40 Time=  1.40000E+00 Dt=  5.00000E-02 [y] snes_conv_reason:    3
  newton =   1 [      46] linear =   141 [      5953] cuts =  0 [   0]
  --> max chng: dpmx=   2.4335E+00 dtmpmx=   1.8326E-01

== TH FLOW =====================================================================
 Step     41 Time=  1.45000E+00 Dt=  5.00000E-02 [y] snes_conv_reason:    3
  newton =   1 [      47] linear =   136 [      6089] cuts =  0 [   0]
  --> max chng: dpmx=   2.4257E+00 dtmpmx=   1.8067E-01

== TH FLOW =====================================================================
 Step     42 Time=  1.50000E+00 Dt=  5.00000E-02 [y] snes_conv_reason:    3
  newton =   1 [      48] linear =   132 [      6221] cuts =  0 [   0]
  --> max chng: dpmx=   2.4125E+00 dtmpmx=   1.7745E-01

== TH FLOW =====================================================================
 Step     43 Time=  1.55000E+00 Dt=  5.00000E-02 [y] snes_conv_reason:    3
  newton =   1 [      49] linear =   133 [      6354] cuts =  0 [   0]
  --> max chng: dpmx=   2.3983E+00 dtmpmx=   1.7301E-01

== TH FLOW =====================================================================
 Step     44 Time=  1.60000E+00 Dt=  5.00000E-02 [y] snes_conv_reason:    3
  newton =   1 [      50] linear =   136 [      6490] cuts =  0 [   0]
  --> max chng: dpmx=   2.3927E+00 dtmpmx=   1.6754E-01

== TH FLOW =====================================================================
 Step     45 Time=  1.65000E+00 Dt=  5.00000E-02 [y] snes_conv_reason:    3
  newton =   1 [      51] linear =   137 [      6627] cuts =  0 [   0]
  --> max chng: dpmx=   2.3839E+00 dtmpmx=   1.6342E-01

== TH FLOW =====================================================================
 Step     46 Time=  1.70000E+00 Dt=  5.00000E-02 [y] snes_conv_reason:    3
  newton =   1 [      52] linear =   139 [      6766] cuts =  0 [   0]
  --> max chng: dpmx=   2.3703E+00 dtmpmx=   1.6156E-01

== TH FLOW =====================================================================
 Step     47 Time=  1.75000E+00 Dt=  5.00000E-02 [y] snes_conv_reason:    3
  newton =   1 [      53] linear =   138 [      6904] cuts =  0 [   0]
  --> max chng: dpmx=   2.3644E+00 dtmpmx=   1.5871E-01

== TH FLOW =====================================================================
 Step     48 Time=  1.80000E+00 Dt=  5.00000E-02 [y] snes_conv_reason:    3
  newton =   1 [      54] linear =   139 [      7043] cuts =  0 [   0]
  --> max chng: dpmx=   2.3581E+00 dtmpmx=   1.5500E-01

== TH FLOW =====================================================================
 Step     49 Time=  1.85000E+00 Dt=  5.00000E-02 [y] snes_conv_reason:    3
  newton =   1 [      55] linear =   138 [      7181] cuts =  0 [   0]
  --> max chng: dpmx=   2.3484E+00 dtmpmx=   1.5054E-01

== TH FLOW =====================================================================
 Step     50 Time=  1.90000E+00 Dt=  5.00000E-02 [y] snes_conv_reason:    3
  newton =   1 [      56] linear =   139 [      7320] cuts =  0 [   0]
  --> max chng: dpmx=   2.3383E+00 dtmpmx=   1.4871E-01

== TH FLOW =====================================================================
 Step     51 Time=  1.95000E+00 Dt=  5.00000E-02 [y] snes_conv_reason:    3
  newton =   1 [      57] linear =   116 [      7436] cuts =  0 [   0]
  --> max chng: dpmx=   2.3352E+00 dtmpmx=   1.4700E-01

== TH FLOW =====================================================================
 Step     52 Time=  2.00000E+00 Dt=  5.00000E-02 [y] snes_conv_reason:    3
  newton =   1 [      58] linear =   119 [      7555] cuts =  0 [   0]
  --> max chng: dpmx=   2.3279E+00 dtmpmx=   1.4454E-01

== TH FLOW =====================================================================
 Step     53 Time=  2.05000E+00 Dt=  5.00000E-02 [y] snes_conv_reason:    3
  newton =   1 [      59] linear =   138 [      7693] cuts =  0 [   0]
  --> max chng: dpmx=   2.3181E+00 dtmpmx=   1.4143E-01

== TH FLOW =====================================================================
 Step     54 Time=  2.10000E+00 Dt=  5.00000E-02 [y] snes_conv_reason:    3
  newton =   1 [      60] linear =   134 [      7827] cuts =  0 [   0]
  --> max chng: dpmx=   2.3126E+00 dtmpmx=   1.3814E-01

== TH FLOW =====================================================================
 Step     55 Time=  2.15000E+00 Dt=  5.00000E-02 [y] snes_conv_reason:    3
  newton =   1 [      61] linear =   136 [      7963] cuts =  0 [   0]
  --> max chng: dpmx=   2.3088E+00 dtmpmx=   1.3708E-01

== TH FLOW =====================================================================
 Step     56 Time=  2.20000E+00 Dt=  5.00000E-02 [y] snes_conv_reason:    3
  newton =   1 [      62] linear =   138 [      8101] cuts =  0 [   0]
  --> max chng: dpmx=   2.3010E+00 dtmpmx=   1.3555E-01

== TH FLOW =====================================================================
 Step     57 Time=  2.25000E+00 Dt=  5.00000E-02 [y] snes_conv_reason:    3
  newton =   1 [      63] linear =   139 [      8240] cuts =  0 [   0]
  --> max chng: dpmx=   2.2926E+00 dtmpmx=   1.3344E-01

== TH FLOW =====================================================================
 Step     58 Time=  2.30000E+00 Dt=  5.00000E-02 [y] snes_conv_reason:    3
  newton =   1 [      64] linear =   136 [      8376] cuts =  0 [   0]
  --> max chng: dpmx=   2.2897E+00 dtmpmx=   1.3081E-01

== TH FLOW =====================================================================
 Step     59 Time=  2.35000E+00 Dt=  5.00000E-02 [y] snes_conv_reason:    3
  newton =   1 [      65] linear =   140 [      8516] cuts =  0 [   0]
  --> max chng: dpmx=   2.2851E+00 dtmpmx=   1.2864E-01

== TH FLOW =====================================================================
 Step     60 Time=  2.40000E+00 Dt=  5.00000E-02 [y] snes_conv_reason:    3
  newton =   1 [      66] linear =   137 [      8653] cuts =  0 [   0]
  --> max chng: dpmx=   2.2768E+00 dtmpmx=   1.2765E-01

== TH FLOW =====================================================================
 Step     61 Time=  2.45000E+00 Dt=  5.00000E-02 [y] snes_conv_reason:    3
  newton =   1 [      67] linear =   140 [      8793] cuts =  0 [   0]
  --> max chng: dpmx=   2.2724E+00 dtmpmx=   1.2630E-01

== TH FLOW =====================================================================
 Step     62 Time=  2.50000E+00 Dt=  5.00000E-02 [y] snes_conv_reason:    3
  newton =   1 [      68] linear =   140 [      8933] cuts =  0 [   0]
  --> max chng: dpmx=   2.2688E+00 dtmpmx=   1.2449E-01

== TH FLOW =====================================================================
 Step     63 Time=  2.55000E+00 Dt=  5.00000E-02 [y] snes_conv_reason:    3
  newton =   1 [      69] linear =   139 [      9072] cuts =  0 [   0]
  --> max chng: dpmx=   2.2633E+00 dtmpmx=   1.2224E-01

== TH FLOW =====================================================================
 Step     64 Time=  2.60000E+00 Dt=  5.00000E-02 [y] snes_conv_reason:    3
  newton =   1 [      70] linear =   141 [      9213] cuts =  0 [   0]
  --> max chng: dpmx=   2.2554E+00 dtmpmx=   1.2083E-01

== TH FLOW =====================================================================
 Step     65 Time=  2.65000E+00 Dt=  5.00000E-02 [y] snes_conv_reason:    3
  newton =   1 [      71] linear =   140 [      9353] cuts =  0 [   0]
  --> max chng: dpmx=   2.2525E+00 dtmpmx=   1.1985E-01

== TH FLOW =====================================================================
 Step     66 Time=  2.70000E+00 Dt=  5.00000E-02 [y] snes_conv_reason:    3
  newton =   1 [      72] linear =   140 [      9493] cuts =  0 [   0]
  --> max chng: dpmx=   2.2491E+00 dtmpmx=   1.1867E-01

== TH FLOW =====================================================================
 Step     67 Time=  2.75000E+00 Dt=  5.00000E-02 [y] snes_conv_reason:    3
  newton =   1 [      73] linear =   141 [      9634] cuts =  0 [   0]
  --> max chng: dpmx=   2.2433E+00 dtmpmx=   1.1709E-01

== TH FLOW =====================================================================
 Step     68 Time=  2.80000E+00 Dt=  5.00000E-02 [y] snes_conv_reason:    3
  newton =   1 [      74] linear =   133 [      9767] cuts =  0 [   0]
  --> max chng: dpmx=   2.2370E+00 dtmpmx=   1.1515E-01

== TH FLOW =====================================================================
 Step     69 Time=  2.85000E+00 Dt=  5.00000E-02 [y] snes_conv_reason:    3
  newton =   1 [      75] linear =   137 [      9904] cuts =  0 [   0]
  --> max chng: dpmx=   2.2346E+00 dtmpmx=   1.1425E-01

== TH FLOW =====================================================================
 Step     70 Time=  2.90000E+00 Dt=  5.00000E-02 [y] snes_conv_reason:    3
  newton =   1 [      76] linear =   139 [     10043] cuts =  0 [   0]
  --> max chng: dpmx=   2.2305E+00 dtmpmx=   1.1328E-01

== TH FLOW =====================================================================
 Step     71 Time=  2.95000E+00 Dt=  5.00000E-02 [y] snes_conv_reason:    3
  newton =   1 [      77] linear =   141 [     10184] cuts =  0 [   0]
  --> max chng: dpmx=   2.2249E+00 dtmpmx=   1.1224E-01

== TH FLOW =====================================================================
 Step     72 Time=  3.00000E+00 Dt=  5.00000E-02 [y] snes_conv_reason:    3
  newton =   1 [      78] linear =   138 [     10322] cuts =  0 [   0]
  --> max chng: dpmx=   2.2203E+00 dtmpmx=   1.1086E-01

== TH FLOW =====================================================================
 Step     73 Time=  3.05000E+00 Dt=  5.00000E-02 [y] snes_conv_reason:    3
  newton =   1 [      79] linear =   134 [     10456] cuts =  0 [   0]
  --> max chng: dpmx=   2.2167E+00 dtmpmx=   1.0938E-01

== TH FLOW =====================================================================
 Step     74 Time=  3.10000E+00 Dt=  5.00000E-02 [y] snes_conv_reason:    3
  newton =   1 [      80] linear =   141 [     10597] cuts =  0 [   0]
  --> max chng: dpmx=   2.2136E+00 dtmpmx=   1.0863E-01

== TH FLOW =====================================================================
 Step     75 Time=  3.15000E+00 Dt=  5.00000E-02 [y] snes_conv_reason:    3
  newton =   1 [      81] linear =   139 [     10736] cuts =  0 [   0]
  --> max chng: dpmx=   2.2076E+00 dtmpmx=   1.0765E-01

== TH FLOW =====================================================================
 Step     76 Time=  3.20000E+00 Dt=  5.00000E-02 [y] snes_conv_reason:    3
  newton =   1 [      82] linear =   136 [     10872] cuts =  0 [   0]
  --> max chng: dpmx=   2.2034E+00 dtmpmx=   1.0673E-01

== TH FLOW =====================================================================
 Step     77 Time=  3.25000E+00 Dt=  5.00000E-02 [y] snes_conv_reason:    3
  newton =   1 [      83] linear =   139 [     11011] cuts =  0 [   0]
  --> max chng: dpmx=   2.2017E+00 dtmpmx=   1.0552E-01

== TH FLOW =====================================================================
 Step     78 Time=  3.30000E+00 Dt=  5.00000E-02 [y] snes_conv_reason:    3
  newton =   1 [      84] linear =   140 [     11151] cuts =  0 [   0]
  --> max chng: dpmx=   2.1968E+00 dtmpmx=   1.0441E-01

== TH FLOW =====================================================================
 Step     79 Time=  3.35000E+00 Dt=  5.00000E-02 [y] snes_conv_reason:    3
  newton =   1 [      85] linear =   135 [     11286] cuts =  0 [   0]
  --> max chng: dpmx=   2.1911E+00 dtmpmx=   1.0376E-01

== TH FLOW =====================================================================
 Step     80 Time=  3.40000E+00 Dt=  5.00000E-02 [y] snes_conv_reason:    3
  newton =   1 [      86] linear =   131 [     11417] cuts =  0 [   0]
  --> max chng: dpmx=   2.1886E+00 dtmpmx=   1.0284E-01

== TH FLOW =====================================================================
 Step     81 Time=  3.45000E+00 Dt=  5.00000E-02 [y] snes_conv_reason:    3
  newton =   1 [      87] linear =   140 [     11557] cuts =  0 [   0]
  --> max chng: dpmx=   2.1859E+00 dtmpmx=   1.0196E-01

== TH FLOW =====================================================================
 Step     82 Time=  3.50000E+00 Dt=  5.00000E-02 [y] snes_conv_reason:    3
  newton =   1 [      88] linear =   137 [     11694] cuts =  0 [   0]
  --> max chng: dpmx=   2.1813E+00 dtmpmx=   1.0089E-01

== TH FLOW =====================================================================
 Step     83 Time=  3.55000E+00 Dt=  5.00000E-02 [y] snes_conv_reason:    3
  newton =   1 [      89] linear =   139 [     11833] cuts =  0 [   0]
  --> max chng: dpmx=   2.1760E+00 dtmpmx=   1.0006E-01

== TH FLOW =====================================================================
 Step     84 Time=  3.60000E+00 Dt=  5.00000E-02 [y] snes_conv_reason:    3
  newton =   1 [      90] linear =   140 [     11973] cuts =  0 [   0]
  --> max chng: dpmx=   2.1737E+00 dtmpmx=   9.9494E-02

== TH FLOW =====================================================================
 Step     85 Time=  3.65000E+00 Dt=  5.00000E-02 [y] snes_conv_reason:    3
  newton =   1 [      91] linear =   138 [     12111] cuts =  0 [   0]
  --> max chng: dpmx=   2.1708E+00 dtmpmx=   9.8689E-02

== TH FLOW =====================================================================
 Step     86 Time=  3.70000E+00 Dt=  5.00000E-02 [y] snes_conv_reason:    3
  newton =   1 [      92] linear =   139 [     12250] cuts =  0 [   0]
  --> max chng: dpmx=   2.1662E+00 dtmpmx=   9.7765E-02

== TH FLOW =====================================================================
 Step     87 Time=  3.75000E+00 Dt=  5.00000E-02 [y] snes_conv_reason:    3
  newton =   1 [      93] linear =   137 [     12387] cuts =  0 [   0]
  --> max chng: dpmx=   2.1610E+00 dtmpmx=   9.6811E-02

== TH FLOW =====================================================================
 Step     88 Time=  3.80000E+00 Dt=  5.00000E-02 [y] snes_conv_reason:    3
  newton =   1 [      94] linear =   130 [     12517] cuts =  0 [   0]
  --> max chng: dpmx=   2.1596E+00 dtmpmx=   9.6199E-02

== TH FLOW =====================================================================
 Step     89 Time=  3.85000E+00 Dt=  5.00000E-02 [y] snes_conv_reason:    3
  newton =   1 [      95] linear =   134 [     12651] cuts =  0 [   0]
  --> max chng: dpmx=   2.1569E+00 dtmpmx=   9.5709E-02

== TH FLOW =====================================================================
 Step     90 Time=  3.90000E+00 Dt=  5.00000E-02 [y] snes_conv_reason:    3
  newton =   1 [      96] linear =   137 [     12788] cuts =  0 [   0]
  --> max chng: dpmx=   2.1519E+00 dtmpmx=   9.5001E-02

== TH FLOW =====================================================================
 Step     91 Time=  3.95000E+00 Dt=  5.00000E-02 [y] snes_conv_reason:    3
  newton =   1 [      97] linear =   137 [     12925] cuts =  0 [   0]
  --> max chng: dpmx=   2.1479E+00 dtmpmx=   9.4084E-02

== TH FLOW =====================================================================
 Step     92 Time=  4.00000E+00 Dt=  5.00000E-02 [y] snes_conv_reason:    3
  newton =   1 [      98] linear =   136 [     13061] cuts =  0 [   0]
  --> max chng: dpmx=   2.1453E+00 dtmpmx=   9.3192E-02

== TH FLOW =====================================================================
 Step     93 Time=  4.05000E+00 Dt=  5.00000E-02 [y] snes_conv_reason:    3
  newton =   1 [      99] linear =   138 [     13199] cuts =  0 [   0]
  --> max chng: dpmx=   2.1421E+00 dtmpmx=   9.2749E-02

== TH FLOW =====================================================================
 Step     94 Time=  4.10000E+00 Dt=  5.00000E-02 [y] snes_conv_reason:    3
  newton =   1 [     100] linear =   136 [     13335] cuts =  0 [   0]
  --> max chng: dpmx=   2.1377E+00 dtmpmx=   9.2319E-02

== TH FLOW =====================================================================
 Step     95 Time=  4.15000E+00 Dt=  5.00000E-02 [y] snes_conv_reason:    3
  newton =   1 [     101] linear =   137 [     13472] cuts =  0 [   0]
  --> max chng: dpmx=   2.1353E+00 dtmpmx=   9.1691E-02

== TH FLOW =====================================================================
 Step     96 Time=  4.20000E+00 Dt=  5.00000E-02 [y] snes_conv_reason:    3
  newton =   1 [     102] linear =   137 [     13609] cuts =  0 [   0]
  --> max chng: dpmx=   2.1321E+00 dtmpmx=   9.0878E-02

== TH FLOW =====================================================================
 Step     97 Time=  4.25000E+00 Dt=  5.00000E-02 [y] snes_conv_reason:    3
  newton =   1 [     103] linear =   134 [     13743] cuts =  0 [   0]
  --> max chng: dpmx=   2.1288E+00 dtmpmx=   8.9950E-02

== TH FLOW =====================================================================
 Step     98 Time=  4.30000E+00 Dt=  5.00000E-02 [y] snes_conv_reason:    3
  newton =   1 [     104] linear =   137 [     13880] cuts =  0 [   0]
  --> max chng: dpmx=   2.1242E+00 dtmpmx=   8.9642E-02

== TH FLOW =====================================================================
 Step     99 Time=  4.35000E+00 Dt=  5.00000E-02 [y] snes_conv_reason:    3
  newton =   1 [     105] linear =   137 [     14017] cuts =  0 [   0]
  --> max chng: dpmx=   2.1215E+00 dtmpmx=   8.9261E-02

== TH FLOW =====================================================================
 Step    100 Time=  4.40000E+00 Dt=  5.00000E-02 [y] snes_conv_reason:    3
  newton =   1 [     106] linear =   137 [     14154] cuts =  0 [   0]
  --> max chng: dpmx=   2.1185E+00 dtmpmx=   8.8702E-02

== TH FLOW =====================================================================
 Step    101 Time=  4.45000E+00 Dt=  5.00000E-02 [y] snes_conv_reason:    3
  newton =   1 [     107] linear =   137 [     14291] cuts =  0 [   0]
  --> max chng: dpmx=   2.1158E+00 dtmpmx=   8.7972E-02

== TH FLOW =====================================================================
 Step    102 Time=  4.50000E+00 Dt=  5.00000E-02 [y] snes_conv_reason:    3
  newton =   1 [     108] linear =   136 [     14427] cuts =  0 [   0]
  --> max chng: dpmx=   2.1111E+00 dtmpmx=   8.7081E-02

== TH FLOW =====================================================================
 Step    103 Time=  4.55000E+00 Dt=  5.00000E-02 [y] snes_conv_reason:    3
  newton =   1 [     109] linear =   137 [     14564] cuts =  0 [   0]
  --> max chng: dpmx=   2.1088E+00 dtmpmx=   8.6822E-02

== TH FLOW =====================================================================
 Step    104 Time=  4.60000E+00 Dt=  5.00000E-02 [y] snes_conv_reason:    3
  newton =   1 [     110] linear =   137 [     14701] cuts =  0 [   0]
  --> max chng: dpmx=   2.1058E+00 dtmpmx=   8.6485E-02

== TH FLOW =====================================================================
 Step    105 Time=  4.65000E+00 Dt=  5.00000E-02 [y] snes_conv_reason:    3
  newton =   1 [     111] linear =   136 [     14837] cuts =  0 [   0]
  --> max chng: dpmx=   2.1028E+00 dtmpmx=   8.5984E-02

== TH FLOW =====================================================================
 Step    106 Time=  4.70000E+00 Dt=  5.00000E-02 [y] snes_conv_reason:    3
  newton =   1 [     112] linear =   137 [     14974] cuts =  0 [   0]
  --> max chng: dpmx=   2.0984E+00 dtmpmx=   8.5326E-02

== TH FLOW =====================================================================
 Step    107 Time=  4.75000E+00 Dt=  5.00000E-02 [y] snes_conv_reason:    3
  newton =   1 [     113] linear =   136 [     15110] cuts =  0 [   0]
  --> max chng: dpmx=   2.0958E+00 dtmpmx=   8.4519E-02

== TH FLOW =====================================================================
 Step    108 Time=  4.80000E+00 Dt=  5.00000E-02 [y] snes_conv_reason:    3
  newton =   1 [     114] linear =   136 [     15246] cuts =  0 [   0]
  --> max chng: dpmx=   2.0932E+00 dtmpmx=   8.4248E-02

== TH FLOW =====================================================================
 Step    109 Time=  4.85000E+00 Dt=  5.00000E-02 [y] snes_conv_reason:    3
  newton =   1 [     115] linear =   136 [     15382] cuts =  0 [   0]
  --> max chng: dpmx=   2.0901E+00 dtmpmx=   8.3948E-02

== TH FLOW =====================================================================
 Step    110 Time=  4.90000E+00 Dt=  5.00000E-02 [y] snes_conv_reason:    3
  newton =   1 [     116] linear =   124 [     15506] cuts =  0 [   0]
  --> max chng: dpmx=   2.0855E+00 dtmpmx=   8.3497E-02

== TH FLOW =====================================================================
 Step    111 Time=  4.95000E+00 Dt=  5.00000E-02 [y] snes_conv_reason:    3
  newton =   1 [     117] linear =   136 [     15642] cuts =  0 [   0]
  --> max chng: dpmx=   2.0839E+00 dtmpmx=   8.2902E-02

== TH FLOW =====================================================================
 Step    112 Time=  5.00000E+00 Dt=  5.00000E-02 [y] snes_conv_reason:    3
  newton =   1 [     118] linear =   129 [     15771] cuts =  0 [   0]
  --> max chng: dpmx=   2.0808E+00 dtmpmx=   8.2168E-02

== TH FLOW =====================================================================
 Step    113 Time=  5.05000E+00 Dt=  5.00000E-02 [y] snes_conv_reason:    3
  newton =   1 [     119] linear =   134 [     15905] cuts =  0 [   0]
  --> max chng: dpmx=   2.0776E+00 dtmpmx=   8.1885E-02

== TH FLOW =====================================================================
 Step    114 Time=  5.10000E+00 Dt=  5.00000E-02 [y] snes_conv_reason:    3
  newton =   1 [     120] linear =   134 [     16039] cuts =  0 [   0]
  --> max chng: dpmx=   2.0737E+00 dtmpmx=   8.1617E-02

== TH FLOW =====================================================================
 Step    115 Time=  5.15000E+00 Dt=  5.00000E-02 [y] snes_conv_reason:    3
  newton =   1 [     121] linear =   130 [     16169] cuts =  0 [   0]
  --> max chng: dpmx=   2.0707E+00 dtmpmx=   8.1209E-02

== TH FLOW =====================================================================
 Step    116 Time=  5.20000E+00 Dt=  5.00000E-02 [y] snes_conv_reason:    3
  newton =   1 [     122] linear =   132 [     16301] cuts =  0 [   0]
  --> max chng: dpmx=   2.0691E+00 dtmpmx=   8.0668E-02

== TH FLOW =====================================================================
 Step    117 Time=  5.25000E+00 Dt=  5.00000E-02 [y] snes_conv_reason:    3
  newton =   1 [     123] linear =   133 [     16434] cuts =  0 [   0]
  --> max chng: dpmx=   2.0652E+00 dtmpmx=   7.9999E-02

== TH FLOW =====================================================================
 Step    118 Time=  5.30000E+00 Dt=  5.00000E-02 [y] snes_conv_reason:    3
  newton =   1 [     124] linear =   133 [     16567] cuts =  0 [   0]
  --> max chng: dpmx=   2.0618E+00 dtmpmx=   7.9706E-02

== TH FLOW =====================================================================
 Step    119 Time=  5.35000E+00 Dt=  5.00000E-02 [y] snes_conv_reason:    3
  newton =   1 [     125] linear =   135 [     16702] cuts =  0 [   0]
  --> max chng: dpmx=   2.0590E+00 dtmpmx=   7.9466E-02

== TH FLOW =====================================================================
 Step    120 Time=  5.40000E+00 Dt=  5.00000E-02 [y] snes_conv_reason:    3
  newton =   1 [     126] linear =   135 [     16837] cuts =  0 [   0]
  --> max chng: dpmx=   2.0565E+00 dtmpmx=   7.9096E-02

== TH FLOW =====================================================================
 Step    121 Time=  5.45000E+00 Dt=  5.00000E-02 [y] snes_conv_reason:    3
  newton =   1 [     127] linear =   135 [     16972] cuts =  0 [   0]
  --> max chng: dpmx=   2.0534E+00 dtmpmx=   7.8602E-02

== TH FLOW =====================================================================
 Step    122 Time=  5.50000E+00 Dt=  5.00000E-02 [y] snes_conv_reason:    3
  newton =   1 [     128] linear =   134 [     17106] cuts =  0 [   0]
  --> max chng: dpmx=   2.0496E+00 dtmpmx=   7.7988E-02

== TH FLOW =====================================================================
 Step    123 Time=  5.55000E+00 Dt=  5.00000E-02 [y] snes_conv_reason:    3
  newton =   1 [     129] linear =   135 [     17241] cuts =  0 [   0]
  --> max chng: dpmx=   2.0472E+00 dtmpmx=   7.7687E-02

== TH FLOW =====================================================================
 Step    124 Time=  5.60000E+00 Dt=  5.00000E-02 [y] snes_conv_reason:    3
  newton =   1 [     130] linear =   135 [     17376] cuts =  0 [   0]
  --> max chng: dpmx=   2.0448E+00 dtmpmx=   7.7471E-02

== TH FLOW =====================================================================
 Step    125 Time=  5.65000E+00 Dt=  5.00000E-02 [y] snes_conv_reason:    3
  newton =   1 [     131] linear =   134 [     17510] cuts =  0 [   0]
  --> max chng: dpmx=   2.0417E+00 dtmpmx=   7.7135E-02

== TH FLOW =====================================================================
 Step    126 Time=  5.70000E+00 Dt=  5.00000E-02 [y] snes_conv_reason:    3
  newton =   1 [     132] linear =   137 [     17647] cuts =  0 [   0]
  --> max chng: dpmx=   2.0378E+00 dtmpmx=   7.6682E-02

== TH FLOW =====================================================================
 Step    127 Time=  5.75000E+00 Dt=  5.00000E-02 [y] snes_conv_reason:    3
  newton =   1 [     133] linear =   135 [     17782] cuts =  0 [   0]
  --> max chng: dpmx=   2.0356E+00 dtmpmx=   7.6118E-02

== TH FLOW =====================================================================
 Step    128 Time=  5.80000E+00 Dt=  5.00000E-02 [y] snes_conv_reason:    3
  newton =   1 [     134] linear =   136 [     17918] cuts =  0 [   0]
  --> max chng: dpmx=   2.0330E+00 dtmpmx=   7.5810E-02

== TH FLOW =====================================================================
 Step    129 Time=  5.85000E+00 Dt=  5.00000E-02 [y] snes_conv_reason:    3
  newton =   1 [     135] linear =   136 [     18054] cuts =  0 [   0]
  --> max chng: dpmx=   2.0300E+00 dtmpmx=   7.5616E-02

== TH FLOW =====================================================================
 Step    130 Time=  5.90000E+00 Dt=  5.00000E-02 [y] snes_conv_reason:    3
  newton =   1 [     136] linear =   135 [     18189] cuts =  0 [   0]
  --> max chng: dpmx=   2.0265E+00 dtmpmx=   7.5308E-02

== TH FLOW =====================================================================
 Step    131 Time=  5.95000E+00 Dt=  5.00000E-02 [y] snes_conv_reason:    3
  newton =   1 [     137] linear =   136 [     18325] cuts =  0 [   0]
  --> max chng: dpmx=   2.0238E+00 dtmpmx=   7.4892E-02

== TH FLOW =====================================================================
 Step    132 Time=  6.00000E+00 Dt=  5.00000E-02 [y] snes_conv_reason:    3
  newton =   1 [     138] linear =   136 [     18461] cuts =  0 [   0]
  --> max chng: dpmx=   2.0214E+00 dtmpmx=   7.4371E-02

== TH FLOW =====================================================================
 Step    133 Time=  6.05000E+00 Dt=  5.00000E-02 [y] snes_conv_reason:    3
  newton =   1 [     139] linear =   136 [     18597] cuts =  0 [   0]
  --> max chng: dpmx=   2.0184E+00 dtmpmx=   7.4059E-02

== TH FLOW =====================================================================
 Step    134 Time=  6.10000E+00 Dt=  5.00000E-02 [y] snes_conv_reason:    3
  newton =   1 [     140] linear =   136 [     18733] cuts =  0 [   0]
  --> max chng: dpmx=   2.0147E+00 dtmpmx=   7.3883E-02

== TH FLOW =====================================================================
 Step    135 Time=  6.15000E+00 Dt=  5.00000E-02 [y] snes_conv_reason:    3
  newton =   1 [     141] linear =   136 [     18869] cuts =  0 [   0]
  --> max chng: dpmx=   2.0128E+00 dtmpmx=   7.3601E-02

== TH FLOW =====================================================================
 Step    136 Time=  6.20000E+00 Dt=  5.00000E-02 [y] snes_conv_reason:    3
  newton =   1 [     142] linear =   137 [     19006] cuts =  0 [   0]
  --> max chng: dpmx=   2.0097E+00 dtmpmx=   7.3218E-02

== TH FLOW =====================================================================
 Step    137 Time=  6.25000E+00 Dt=  5.00000E-02 [y] snes_conv_reason:    3
  newton =   1 [     143] linear =   134 [     19140] cuts =  0 [   0]
  --> max chng: dpmx=   2.0071E+00 dtmpmx=   7.2735E-02

== TH FLOW =====================================================================
 Step    138 Time=  6.30000E+00 Dt=  5.00000E-02 [y] snes_conv_reason:    3
  newton =   1 [     144] linear =   130 [     19270] cuts =  0 [   0]
  --> max chng: dpmx=   2.0036E+00 dtmpmx=   7.2419E-02

== TH FLOW =====================================================================
 Step    139 Time=  6.35000E+00 Dt=  5.00000E-02 [y] snes_conv_reason:    3
  newton =   1 [     145] linear =   132 [     19402] cuts =  0 [   0]
  --> max chng: dpmx=   2.0011E+00 dtmpmx=   7.2259E-02

== TH FLOW =====================================================================
 Step    140 Time=  6.40000E+00 Dt=  5.00000E-02 [y] snes_conv_reason:    3
  newton =   1 [     146] linear =   125 [     19527] cuts =  0 [   0]
  --> max chng: dpmx=   1.9984E+00 dtmpmx=   7.2001E-02

== TH FLOW =====================================================================
 Step    141 Time=  6.45000E+00 Dt=  5.00000E-02 [y] snes_conv_reason:    3
  newton =   1 [     147] linear =   134 [     19661] cuts =  0 [   0]
  --> max chng: dpmx=   1.9957E+00 dtmpmx=   7.1646E-02

== TH FLOW =====================================================================
 Step    142 Time=  6.50000E+00 Dt=  5.00000E-02 [y] snes_conv_reason:    3
  newton =   1 [     148] linear =   135 [     19796] cuts =  0 [   0]
  --> max chng: dpmx=   1.9925E+00 dtmpmx=   7.1199E-02

== TH FLOW =====================================================================
 Step    143 Time=  6.55000E+00 Dt=  5.00000E-02 [y] snes_conv_reason:    3
  newton =   1 [     149] linear =   136 [     19932] cuts =  0 [   0]
  --> max chng: dpmx=   1.9900E+00 dtmpmx=   7.0879E-02

== TH FLOW =====================================================================
 Step    144 Time=  6.60000E+00 Dt=  5.00000E-02 [y] snes_conv_reason:    3
  newton =   1 [     150] linear =   136 [     20068] cuts =  0 [   0]
  --> max chng: dpmx=   1.9874E+00 dtmpmx=   7.0734E-02

== TH FLOW =====================================================================
 Step    145 Time=  6.65000E+00 Dt=  5.00000E-02 [y] snes_conv_reason:    3
  newton =   1 [     151] linear =   134 [     20202] cuts =  0 [   0]
  --> max chng: dpmx=   1.9847E+00 dtmpmx=   7.0496E-02

== TH FLOW =====================================================================
 Step    146 Time=  6.70000E+00 Dt=  5.00000E-02 [y] snes_conv_reason:    3
  newton =   1 [     152] linear =   136 [     20338] cuts =  0 [   0]
  --> max chng: dpmx=   1.9813E+00 dtmpmx=   7.0167E-02

== TH FLOW =====================================================================
 Step    147 Time=  6.75000E+00 Dt=  5.00000E-02 [y] snes_conv_reason:    3
  newton =   1 [     153] linear =   134 [     20472] cuts =  0 [   0]
  --> max chng: dpmx=   1.9784E+00 dtmpmx=   6.9751E-02

== TH FLOW =====================================================================
 Step    148 Time=  6.80000E+00 Dt=  5.00000E-02 [y] snes_conv_reason:    3
  newton =   1 [     154] linear =   133 [     20605] cuts =  0 [   0]
  --> max chng: dpmx=   1.9764E+00 dtmpmx=   6.9429E-02

== TH FLOW =====================================================================
 Step    149 Time=  6.85000E+00 Dt=  5.00000E-02 [y] snes_conv_reason:    3
  newton =   1 [     155] linear =   134 [     20739] cuts =  0 [   0]
  --> max chng: dpmx=   1.9735E+00 dtmpmx=   6.9298E-02

== TH FLOW =====================================================================
 Step    150 Time=  6.90000E+00 Dt=  5.00000E-02 [y] snes_conv_reason:    3
  newton =   1 [     156] linear =   133 [     20872] cuts =  0 [   0]
  --> max chng: dpmx=   1.9706E+00 dtmpmx=   6.9078E-02

== TH FLOW =====================================================================
 Step    151 Time=  6.95000E+00 Dt=  5.00000E-02 [y] snes_conv_reason:    3
  newton =   1 [     157] linear =   130 [     21002] cuts =  0 [   0]
  --> max chng: dpmx=   1.9674E+00 dtmpmx=   6.8772E-02

== TH FLOW =====================================================================
 Step    152 Time=  7.00000E+00 Dt=  5.00000E-02 [y] snes_conv_reason:    3
  newton =   1 [     158] linear =   139 [     21141] cuts =  0 [   0]
  --> max chng: dpmx=   1.9653E+00 dtmpmx=   6.8384E-02

== TH FLOW =====================================================================
 Step    153 Time=  7.05000E+00 Dt=  5.00000E-02 [y] snes_conv_reason:    3
  newton =   1 [     159] linear =   140 [     21281] cuts =  0 [   0]
  --> max chng: dpmx=   1.9626E+00 dtmpmx=   6.8061E-02

== TH FLOW =====================================================================
 Step    154 Time=  7.10000E+00 Dt=  5.00000E-02 [y] snes_conv_reason:    3
  newton =   1 [     160] linear =   128 [     21409] cuts =  0 [   0]
  --> max chng: dpmx=   1.9595E+00 dtmpmx=   6.7941E-02

== TH FLOW =====================================================================
 Step    155 Time=  7.15000E+00 Dt=  5.00000E-02 [y] snes_conv_reason:    3
  newton =   1 [     161] linear =   137 [     21546] cuts =  0 [   0]
  --> max chng: dpmx=   1.9568E+00 dtmpmx=   6.7738E-02

== TH FLOW =====================================================================
 Step    156 Time=  7.20000E+00 Dt=  5.00000E-02 [y] snes_conv_reason:    3
  newton =   1 [     162] linear =   137 [     21683] cuts =  0 [   0]
  --> max chng: dpmx=   1.9544E+00 dtmpmx=   6.7453E-02

== TH FLOW =====================================================================
 Step    157 Time=  7.25000E+00 Dt=  5.00000E-02 [y] snes_conv_reason:    3
  newton =   1 [     163] linear =   139 [     21822] cuts =  0 [   0]
  --> max chng: dpmx=   1.9517E+00 dtmpmx=   6.7090E-02

== TH FLOW =====================================================================
 Step    158 Time=  7.30000E+00 Dt=  5.00000E-02 [y] snes_conv_reason:    3
  newton =   1 [     164] linear =   137 [     21959] cuts =  0 [   0]
  --> max chng: dpmx=   1.9486E+00 dtmpmx=   6.6767E-02

== TH FLOW =====================================================================
 Step    159 Time=  7.35000E+00 Dt=  5.00000E-02 [y] snes_conv_reason:    3
  newton =   1 [     165] linear =   131 [     22090] cuts =  0 [   0]
  --> max chng: dpmx=   1.9455E+00 dtmpmx=   6.6657E-02

== TH FLOW =====================================================================
 Step    160 Time=  7.40000E+00 Dt=  5.00000E-02 [y] snes_conv_reason:    3
  newton =   1 [     166] linear =   130 [     22220] cuts =  0 [   0]
  --> max chng: dpmx=   1.9440E+00 dtmpmx=   6.6469E-02

== TH FLOW =====================================================================
 Step    161 Time=  7.45000E+00 Dt=  5.00000E-02 [y] snes_conv_reason:    3
  newton =   1 [     167] linear =   133 [     22353] cuts =  0 [   0]
  --> max chng: dpmx=   1.9406E+00 dtmpmx=   6.6203E-02

== TH FLOW =====================================================================
 Step    162 Time=  7.50000E+00 Dt=  5.00000E-02 [y] snes_conv_reason:    3
  newton =   1 [     168] linear =   133 [     22486] cuts =  0 [   0]
  --> max chng: dpmx=   1.9381E+00 dtmpmx=   6.5863E-02

== TH FLOW =====================================================================
 Step    163 Time=  7.55000E+00 Dt=  5.00000E-02 [y] snes_conv_reason:    3
  newton =   1 [     169] linear =   133 [     22619] cuts =  0 [   0]
  --> max chng: dpmx=   1.9353E+00 dtmpmx=   6.5540E-02

== TH FLOW =====================================================================
 Step    164 Time=  7.60000E+00 Dt=  5.00000E-02 [y] snes_conv_reason:    3
  newton =   1 [     170] linear =   134 [     22753] cuts =  0 [   0]
  --> max chng: dpmx=   1.9328E+00 dtmpmx=   6.5440E-02

== TH FLOW =====================================================================
 Step    165 Time=  7.65000E+00 Dt=  5.00000E-02 [y] snes_conv_reason:    3
  newton =   1 [     171] linear =   135 [     22888] cuts =  0 [   0]
  --> max chng: dpmx=   1.9301E+00 dtmpmx=   6.5265E-02

== TH FLOW =====================================================================
 Step    166 Time=  7.70000E+00 Dt=  5.00000E-02 [y] snes_conv_reason:    3
  newton =   1 [     172] linear =   134 [     23022] cuts =  0 [   0]
  --> max chng: dpmx=   1.9274E+00 dtmpmx=   6.5016E-02

== TH FLOW =====================================================================
 Step    167 Time=  7.75000E+00 Dt=  5.00000E-02 [y] snes_conv_reason:    3
  newton =   1 [     173] linear =   136 [     23158] cuts =  0 [   0]
  --> max chng: dpmx=   1.9244E+00 dtmpmx=   6.4696E-02

== TH FLOW =====================================================================
 Step    168 Time=  7.80000E+00 Dt=  5.00000E-02 [y] snes_conv_reason:    3
  newton =   1 [     174] linear =   135 [     23293] cuts =  0 [   0]
  --> max chng: dpmx=   1.9222E+00 dtmpmx=   6.4374E-02

== TH FLOW =====================================================================
 Step    169 Time=  7.85000E+00 Dt=  5.00000E-02 [y] snes_conv_reason:    3
  newton =   1 [     175] linear =   134 [     23427] cuts =  0 [   0]
  --> max chng: dpmx=   1.9191E+00 dtmpmx=   6.4283E-02

== TH FLOW =====================================================================
 Step    170 Time=  7.90000E+00 Dt=  5.00000E-02 [y] snes_conv_reason:    3
  newton =   1 [     176] linear =   135 [     23562] cuts =  0 [   0]
  --> max chng: dpmx=   1.9174E+00 dtmpmx=   6.4120E-02

== TH FLOW =====================================================================
 Step    171 Time=  7.95000E+00 Dt=  5.00000E-02 [y] snes_conv_reason:    3
  newton =   1 [     177] linear =   134 [     23696] cuts =  0 [   0]
  --> max chng: dpmx=   1.9137E+00 dtmpmx=   6.3887E-02

== TH FLOW =====================================================================
 Step    172 Time=  8.00000E+00 Dt=  5.00000E-02 [y] snes_conv_reason:    3
  newton =   1 [     178] linear =   123 [     23819] cuts =  0 [   0]
  --> max chng: dpmx=   1.9114E+00 dtmpmx=   6.3586E-02

== TH FLOW =====================================================================
 Step    173 Time=  8.05000E+00 Dt=  5.00000E-02 [y] snes_conv_reason:    3
  newton =   1 [     179] linear =   134 [     23953] cuts =  0 [   0]
  --> max chng: dpmx=   1.9089E+00 dtmpmx=   6.3265E-02

== TH FLOW =====================================================================
 Step    174 Time=  8.10000E+00 Dt=  5.00000E-02 [y] snes_conv_reason:    3
  newton =   1 [     180] linear =   135 [     24088] cuts =  0 [   0]
  --> max chng: dpmx=   1.9065E+00 dtmpmx=   6.3181E-02

== TH FLOW =====================================================================
 Step    175 Time=  8.15000E+00 Dt=  5.00000E-02 [y] snes_conv_reason:    3
  newton =   1 [     181] linear =   131 [     24219] cuts =  0 [   0]
  --> max chng: dpmx=   1.9034E+00 dtmpmx=   6.3029E-02

== TH FLOW =====================================================================
 Step    176 Time=  8.20000E+00 Dt=  5.00000E-02 [y] snes_conv_reason:    3
  newton =   1 [     182] linear =   130 [     24349] cuts =  0 [   0]
  --> max chng: dpmx=   1.9007E+00 dtmpmx=   6.2811E-02

== TH FLOW =====================================================================
 Step    177 Time=  8.25000E+00 Dt=  5.00000E-02 [y] snes_conv_reason:    3
  newton =   1 [     183] linear =   134 [     24483] cuts =  0 [   0]
  --> max chng: dpmx=   1.8986E+00 dtmpmx=   6.2527E-02

== TH FLOW =====================================================================
 Step    178 Time=  8.30000E+00 Dt=  5.00000E-02 [y] snes_conv_reason:    3
  newton =   1 [     184] linear =   134 [     24617] cuts =  0 [   0]
  --> max chng: dpmx=   1.8957E+00 dtmpmx=   6.2207E-02

== TH FLOW =====================================================================
 Step    179 Time=  8.35000E+00 Dt=  5.00000E-02 [y] snes_conv_reason:    3
  newton =   1 [     185] linear =   135 [     24752] cuts =  0 [   0]
  --> max chng: dpmx=   1.8931E+00 dtmpmx=   6.2131E-02

== TH FLOW =====================================================================
 Step    180 Time=  8.40000E+00 Dt=  5.00000E-02 [y] snes_conv_reason:    3
  newton =   1 [     186] linear =   135 [     24887] cuts =  0 [   0]
  --> max chng: dpmx=   1.8904E+00 dtmpmx=   6.1989E-02

== TH FLOW =====================================================================
 Step    181 Time=  8.45000E+00 Dt=  5.00000E-02 [y] snes_conv_reason:    3
  newton =   1 [     187] linear =   134 [     25021] cuts =  0 [   0]
  --> max chng: dpmx=   1.8879E+00 dtmpmx=   6.1783E-02

== TH FLOW =====================================================================
 Step    182 Time=  8.50000E+00 Dt=  5.00000E-02 [y] snes_conv_reason:    3
  newton =   1 [     188] linear =   135 [     25156] cuts =  0 [   0]
  --> max chng: dpmx=   1.8858E+00 dtmpmx=   6.1516E-02

== TH FLOW =====================================================================
 Step    183 Time=  8.55000E+00 Dt=  5.00000E-02 [y] snes_conv_reason:    3
  newton =   1 [     189] linear =   134 [     25290] cuts =  0 [   0]
  --> max chng: dpmx=   1.8826E+00 dtmpmx=   6.1198E-02

== TH FLOW =====================================================================
 Step    184 Time=  8.60000E+00 Dt=  5.00000E-02 [y] snes_conv_reason:    3
  newton =   1 [     190] linear =   136 [     25426] cuts =  0 [   0]
  --> max chng: dpmx=   1.8802E+00 dtmpmx=   6.1127E-02

== TH FLOW =====================================================================
 Step    185 Time=  8.65000E+00 Dt=  5.00000E-02 [y] snes_conv_reason:    3
  newton =   1 [     191] linear =   132 [     25558] cuts =  0 [   0]
  --> max chng: dpmx=   1.8776E+00 dtmpmx=   6.0995E-02

== TH FLOW =====================================================================
 Step    186 Time=  8.70000E+00 Dt=  5.00000E-02 [y] snes_conv_reason:    3
  newton =   1 [     192] linear =   134 [     25692] cuts =  0 [   0]
  --> max chng: dpmx=   1.8754E+00 dtmpmx=   6.0801E-02

== TH FLOW =====================================================================
 Step    187 Time=  8.75000E+00 Dt=  5.00000E-02 [y] snes_conv_reason:    3
  newton =   1 [     193] linear =   135 [     25827] cuts =  0 [   0]
  --> max chng: dpmx=   1.8722E+00 dtmpmx=   6.0548E-02

== TH FLOW =====================================================================
 Step    188 Time=  8.80000E+00 Dt=  5.00000E-02 [y] snes_conv_reason:    3
  newton =   1 [     194] linear =   130 [     25957] cuts =  0 [   0]
  --> max chng: dpmx=   1.8698E+00 dtmpmx=   6.0237E-02

== TH FLOW =====================================================================
 Step    189 Time=  8.85000E+00 Dt=  5.00000E-02 [y] snes_conv_reason:    3
  newton =   1 [     195] linear =   135 [     26092] cuts =  0 [   0]
  --> max chng: dpmx=   1.8674E+00 dtmpmx=   6.0168E-02

== TH FLOW =====================================================================
 Step    190 Time=  8.90000E+00 Dt=  5.00000E-02 [y] snes_conv_reason:    3
  newton =   1 [     196] linear =   135 [     26227] cuts =  0 [   0]
  --> max chng: dpmx=   1.8652E+00 dtmpmx=   6.0044E-02

== TH FLOW =====================================================================
 Step    191 Time=  8.95000E+00 Dt=  5.00000E-02 [y] snes_conv_reason:    3
  newton =   1 [     197] linear =   136 [     26363] cuts =  0 [   0]
  --> max chng: dpmx=   1.8622E+00 dtmpmx=   5.9861E-02

== TH FLOW =====================================================================
 Step    192 Time=  9.00000E+00 Dt=  5.00000E-02 [y] snes_conv_reason:    3
  newton =   1 [     198] linear =   134 [     26497] cuts =  0 [   0]
  --> max chng: dpmx=   1.8593E+00 dtmpmx=   5.9621E-02

== TH FLOW =====================================================================
 Step    193 Time=  9.05000E+00 Dt=  5.00000E-02 [y] snes_conv_reason:    3
  newton =   1 [     199] linear =   136 [     26633] cuts =  0 [   0]
  --> max chng: dpmx=   1.8569E+00 dtmpmx=   5.9326E-02

== TH FLOW =====================================================================
 Step    194 Time=  9.10000E+00 Dt=  5.00000E-02 [y] snes_conv_reason:    3
  newton =   1 [     200] linear =   135 [     26768] cuts =  0 [   0]
  --> max chng: dpmx=   1.8549E+00 dtmpmx=   5.9249E-02

== TH FLOW =====================================================================
 Step    195 Time=  9.15000E+00 Dt=  5.00000E-02 [y] snes_conv_reason:    3
  newton =   1 [     201] linear =   133 [     26901] cuts =  0 [   0]
  --> max chng: dpmx=   1.8519E+00 dtmpmx=   5.9132E-02

== TH FLOW =====================================================================
 Step    196 Time=  9.20000E+00 Dt=  5.00000E-02 [y] snes_conv_reason:    3
  newton =   1 [     202] linear =   136 [     27037] cuts =  0 [   0]
  --> max chng: dpmx=   1.8494E+00 dtmpmx=   5.8960E-02

== TH FLOW =====================================================================
 Step    197 Time=  9.25000E+00 Dt=  5.00000E-02 [y] snes_conv_reason:    3
  newton =   1 [     203] linear =   132 [     27169] cuts =  0 [   0]
  --> max chng: dpmx=   1.8469E+00 dtmpmx=   5.8732E-02

== TH FLOW =====================================================================
 Step    198 Time=  9.30000E+00 Dt=  5.00000E-02 [y] snes_conv_reason:    3
  newton =   1 [     204] linear =   129 [     27298] cuts =  0 [   0]
  --> max chng: dpmx=   1.8440E+00 dtmpmx=   5.8451E-02

== TH FLOW =====================================================================
 Step    199 Time=  9.35000E+00 Dt=  5.00000E-02 [y] snes_conv_reason:    3
  newton =   1 [     205] linear =   138 [     27436] cuts =  0 [   0]
  --> max chng: dpmx=   1.8424E+00 dtmpmx=   5.8367E-02

== TH FLOW =====================================================================
 Step    200 Time=  9.40000E+00 Dt=  5.00000E-02 [y] snes_conv_reason:    3
  newton =   1 [     206] linear =   137 [     27573] cuts =  0 [   0]
  --> max chng: dpmx=   1.8390E+00 dtmpmx=   5.8257E-02

== TH FLOW =====================================================================
 Step    201 Time=  9.45000E+00 Dt=  5.00000E-02 [y] snes_conv_reason:    3
  newton =   1 [     207] linear =   133 [     27706] cuts =  0 [   0]
  --> max chng: dpmx=   1.8367E+00 dtmpmx=   5.8094E-02

== TH FLOW =====================================================================
 Step    202 Time=  9.50000E+00 Dt=  5.00000E-02 [y] snes_conv_reason:    3
  newton =   1 [     208] linear =   135 [     27841] cuts =  0 [   0]
  --> max chng: dpmx=   1.8344E+00 dtmpmx=   5.7878E-02

== TH FLOW =====================================================================
 Step    203 Time=  9.55000E+00 Dt=  5.00000E-02 [y] snes_conv_reason:    3
  newton =   1 [     209] linear =   138 [     27979] cuts =  0 [   0]
  --> max chng: dpmx=   1.8322E+00 dtmpmx=   5.7611E-02

== TH FLOW =====================================================================
 Step    204 Time=  9.60000E+00 Dt=  5.00000E-02 [y] snes_conv_reason:    3
  newton =   1 [     210] linear =   135 [     28114] cuts =  0 [   0]
  --> max chng: dpmx=   1.8287E+00 dtmpmx=   5.7520E-02

== TH FLOW =====================================================================
 Step    205 Time=  9.65000E+00 Dt=  5.00000E-02 [y] snes_conv_reason:    3
  newton =   1 [     211] linear =   135 [     28249] cuts =  0 [   0]
  --> max chng: dpmx=   1.8266E+00 dtmpmx=   5.7417E-02

== TH FLOW =====================================================================
 Step    206 Time=  9.70000E+00 Dt=  5.00000E-02 [y] snes_conv_reason:    3
  newton =   1 [     212] linear =   136 [     28385] cuts =  0 [   0]
  --> max chng: dpmx=   1.8250E+00 dtmpmx=   5.7263E-02

== TH FLOW =====================================================================
 Step    207 Time=  9.75000E+00 Dt=  5.00000E-02 [y] snes_conv_reason:    3
  newton =   1 [     213] linear =   136 [     28521] cuts =  0 [   0]
  --> max chng: dpmx=   1.8220E+00 dtmpmx=   5.7057E-02

== TH FLOW =====================================================================
 Step    208 Time=  9.80000E+00 Dt=  5.00000E-02 [y] snes_conv_reason:    3
  newton =   1 [     214] linear =   138 [     28659] cuts =  0 [   0]
  --> max chng: dpmx=   1.8190E+00 dtmpmx=   5.6803E-02

== TH FLOW =====================================================================
 Step    209 Time=  9.85000E+00 Dt=  5.00000E-02 [y] snes_conv_reason:    3
  newton =   1 [     215] linear =   138 [     28797] cuts =  0 [   0]
  --> max chng: dpmx=   1.8163E+00 dtmpmx=   5.6706E-02

== TH FLOW =====================================================================
 Step    210 Time=  9.90000E+00 Dt=  5.00000E-02 [y] snes_conv_reason:    3
  newton =   1 [     216] linear =   138 [     28935] cuts =  0 [   0]
  --> max chng: dpmx=   1.8142E+00 dtmpmx=   5.6609E-02

== TH FLOW =====================================================================
 Step    211 Time=  9.95000E+00 Dt=  5.00000E-02 [y] snes_conv_reason:    3
  newton =   1 [     217] linear =   136 [     29071] cuts =  0 [   0]
  --> max chng: dpmx=   1.8115E+00 dtmpmx=   5.6462E-02

== TH FLOW =====================================================================
 Step    212 Time=  1.00000E+01 Dt=  5.00000E-02 [y] snes_conv_reason:    3
  newton =   1 [     218] linear =   129 [     29200] cuts =  0 [   0]
  --> max chng: dpmx=   1.8100E+00 dtmpmx=   5.6267E-02

== TH FLOW =====================================================================
 Step    213 Time=  1.00500E+01 Dt=  5.00000E-02 [y] snes_conv_reason:    3
  newton =   1 [     219] linear =   132 [     29332] cuts =  0 [   0]
  --> max chng: dpmx=   1.8065E+00 dtmpmx=   5.6024E-02

== TH FLOW =====================================================================
 Step    214 Time=  1.01000E+01 Dt=  5.00000E-02 [y] snes_conv_reason:    3
  newton =   1 [     220] linear =   128 [     29460] cuts =  0 [   0]
  --> max chng: dpmx=   1.8041E+00 dtmpmx=   5.5923E-02

== TH FLOW =====================================================================
 Step    215 Time=  1.01500E+01 Dt=  5.00000E-02 [y] snes_conv_reason:    3
  newton =   1 [     221] linear =   138 [     29598] cuts =  0 [   0]
  --> max chng: dpmx=   1.8019E+00 dtmpmx=   5.5831E-02

== TH FLOW =====================================================================
 Step    216 Time=  1.02000E+01 Dt=  5.00000E-02 [y] snes_conv_reason:    3
  newton =   1 [     222] linear =   136 [     29734] cuts =  0 [   0]
  --> max chng: dpmx=   1.7993E+00 dtmpmx=   5.5692E-02

== TH FLOW =====================================================================
 Step    217 Time=  1.02500E+01 Dt=  5.00000E-02 [y] snes_conv_reason:    3
  newton =   1 [     223] linear =   130 [     29864] cuts =  0 [   0]
  --> max chng: dpmx=   1.7967E+00 dtmpmx=   5.5505E-02

== TH FLOW =====================================================================
 Step    218 Time=  1.03000E+01 Dt=  5.00000E-02 [y] snes_conv_reason:    3
  newton =   1 [     224] linear =   130 [     29994] cuts =  0 [   0]
  --> max chng: dpmx=   1.7946E+00 dtmpmx=   5.5273E-02

== TH FLOW =====================================================================
 Step    219 Time=  1.03500E+01 Dt=  5.00000E-02 [y] snes_conv_reason:    3
  newton =   1 [     225] linear =   137 [     30131] cuts =  0 [   0]
  --> max chng: dpmx=   1.7916E+00 dtmpmx=   5.5168E-02

== TH FLOW =====================================================================
 Step    220 Time=  1.04000E+01 Dt=  5.00000E-02 [y] snes_conv_reason:    3
  newton =   1 [     226] linear =   136 [     30267] cuts =  0 [   0]
  --> max chng: dpmx=   1.7898E+00 dtmpmx=   5.5081E-02

== TH FLOW =====================================================================
 Step    221 Time=  1.04500E+01 Dt=  5.00000E-02 [y] snes_conv_reason:    3
  newton =   1 [     227] linear =   134 [     30401] cuts =  0 [   0]
  --> max chng: dpmx=   1.7872E+00 dtmpmx=   5.4949E-02

== TH FLOW =====================================================================
 Step    222 Time=  1.05000E+01 Dt=  5.00000E-02 [y] snes_conv_reason:    3
  newton =   1 [     228] linear =   123 [     30524] cuts =  0 [   0]
  --> max chng: dpmx=   1.7840E+00 dtmpmx=   5.4771E-02

== TH FLOW =====================================================================
 Step    223 Time=  1.05500E+01 Dt=  5.00000E-02 [y] snes_conv_reason:    3
  newton =   1 [     229] linear =   131 [     30655] cuts =  0 [   0]
  --> max chng: dpmx=   1.7824E+00 dtmpmx=   5.4549E-02

== TH FLOW =====================================================================
 Step    224 Time=  1.06000E+01 Dt=  5.00000E-02 [y] snes_conv_reason:    3
  newton =   1 [     230] linear =   138 [     30793] cuts =  0 [   0]
  --> max chng: dpmx=   1.7795E+00 dtmpmx=   5.4440E-02

== TH FLOW =====================================================================
 Step    225 Time=  1.06500E+01 Dt=  5.00000E-02 [y] snes_conv_reason:    3
  newton =   1 [     231] linear =   133 [     30926] cuts =  0 [   0]
  --> max chng: dpmx=   1.7774E+00 dtmpmx=   5.4358E-02

== TH FLOW =====================================================================
 Step    226 Time=  1.07000E+01 Dt=  5.00000E-02 [y] snes_conv_reason:    3
  newton =   1 [     232] linear =   130 [     31056] cuts =  0 [   0]
  --> max chng: dpmx=   1.7740E+00 dtmpmx=   5.4232E-02

== TH FLOW =====================================================================
 Step    227 Time=  1.07500E+01 Dt=  5.00000E-02 [y] snes_conv_reason:    3
  newton =   1 [     233] linear =   130 [     31186] cuts =  0 [   0]
  --> max chng: dpmx=   1.7724E+00 dtmpmx=   5.4062E-02

== TH FLOW =====================================================================
 Step    228 Time=  1.08000E+01 Dt=  5.00000E-02 [y] snes_conv_reason:    3
  newton =   1 [     234] linear =   135 [     31321] cuts =  0 [   0]
  --> max chng: dpmx=   1.7696E+00 dtmpmx=   5.3849E-02

== TH FLOW =====================================================================
 Step    229 Time=  1.08500E+01 Dt=  5.00000E-02 [y] snes_conv_reason:    3
  newton =   1 [     235] linear =   135 [     31456] cuts =  0 [   0]
  --> max chng: dpmx=   1.7673E+00 dtmpmx=   5.3737E-02

== TH FLOW =====================================================================
 Step    230 Time=  1.09000E+01 Dt=  5.00000E-02 [y] snes_conv_reason:    3
  newton =   1 [     236] linear =   136 [     31592] cuts =  0 [   0]
  --> max chng: dpmx=   1.7647E+00 dtmpmx=   5.3659E-02

== TH FLOW =====================================================================
 Step    231 Time=  1.09500E+01 Dt=  5.00000E-02 [y] snes_conv_reason:    3
  newton =   1 [     237] linear =   137 [     31729] cuts =  0 [   0]
  --> max chng: dpmx=   1.7624E+00 dtmpmx=   5.3539E-02

== TH FLOW =====================================================================
 Step    232 Time=  1.10000E+01 Dt=  5.00000E-02 [y] snes_conv_reason:    3
  newton =   1 [     238] linear =   136 [     31865] cuts =  0 [   0]
  --> max chng: dpmx=   1.7603E+00 dtmpmx=   5.3376E-02

== TH FLOW =====================================================================
 Step    233 Time=  1.10500E+01 Dt=  5.00000E-02 [y] snes_conv_reason:    3
  newton =   1 [     239] linear =   138 [     32003] cuts =  0 [   0]
  --> max chng: dpmx=   1.7575E+00 dtmpmx=   5.3172E-02

== TH FLOW =====================================================================
 Step    234 Time=  1.11000E+01 Dt=  5.00000E-02 [y] snes_conv_reason:    3
  newton =   1 [     240] linear =   122 [     32125] cuts =  0 [   0]
  --> max chng: dpmx=   1.7551E+00 dtmpmx=   5.3057E-02

== TH FLOW =====================================================================
 Step    235 Time=  1.11500E+01 Dt=  5.00000E-02 [y] snes_conv_reason:    3
  newton =   1 [     241] linear =   131 [     32256] cuts =  0 [   0]
  --> max chng: dpmx=   1.7523E+00 dtmpmx=   5.2984E-02

== TH FLOW =====================================================================
 Step    236 Time=  1.12000E+01 Dt=  5.00000E-02 [y] snes_conv_reason:    3
  newton =   1 [     242] linear =   130 [     32386] cuts =  0 [   0]
  --> max chng: dpmx=   1.7501E+00 dtmpmx=   5.2869E-02

== TH FLOW =====================================================================
 Step    237 Time=  1.12500E+01 Dt=  5.00000E-02 [y] snes_conv_reason:    3
  newton =   1 [     243] linear =   132 [     32518] cuts =  0 [   0]
  --> max chng: dpmx=   1.7483E+00 dtmpmx=   5.2713E-02

== TH FLOW =====================================================================
 Step    238 Time=  1.13000E+01 Dt=  5.00000E-02 [y] snes_conv_reason:    3
  newton =   1 [     244] linear =   133 [     32651] cuts =  0 [   0]
  --> max chng: dpmx=   1.7455E+00 dtmpmx=   5.2518E-02

== TH FLOW =====================================================================
 Step    239 Time=  1.13500E+01 Dt=  5.00000E-02 [y] snes_conv_reason:    3
  newton =   1 [     245] linear =   131 [     32782] cuts =  0 [   0]
  --> max chng: dpmx=   1.7426E+00 dtmpmx=   5.2401E-02

== TH FLOW =====================================================================
 Step    240 Time=  1.14000E+01 Dt=  5.00000E-02 [y] snes_conv_reason:    3
  newton =   1 [     246] linear =   134 [     32916] cuts =  0 [   0]
  --> max chng: dpmx=   1.7407E+00 dtmpmx=   5.2331E-02

== TH FLOW =====================================================================
 Step    241 Time=  1.14500E+01 Dt=  5.00000E-02 [y] snes_conv_reason:    3
  newton =   1 [     247] linear =   133 [     33049] cuts =  0 [   0]
  --> max chng: dpmx=   1.7383E+00 dtmpmx=   5.2221E-02

== TH FLOW =====================================================================
 Step    242 Time=  1.15000E+01 Dt=  5.00000E-02 [y] snes_conv_reason:    3
  newton =   1 [     248] linear =   133 [     33182] cuts =  0 [   0]
  --> max chng: dpmx=   1.7357E+00 dtmpmx=   5.2072E-02

== TH FLOW =====================================================================
 Step    243 Time=  1.15500E+01 Dt=  5.00000E-02 [y] snes_conv_reason:    3
  newton =   1 [     249] linear =   133 [     33315] cuts =  0 [   0]
  --> max chng: dpmx=   1.7328E+00 dtmpmx=   5.1884E-02

== TH FLOW =====================================================================
 Step    244 Time=  1.16000E+01 Dt=  5.00000E-02 [y] snes_conv_reason:    3
  newton =   1 [     250] linear =   134 [     33449] cuts =  0 [   0]
  --> max chng: dpmx=   1.7305E+00 dtmpmx=   5.1765E-02

== TH FLOW =====================================================================
 Step    245 Time=  1.16500E+01 Dt=  5.00000E-02 [y] snes_conv_reason:    3
  newton =   1 [     251] linear =   133 [     33582] cuts =  0 [   0]
  --> max chng: dpmx=   1.7286E+00 dtmpmx=   5.1699E-02

== TH FLOW =====================================================================
 Step    246 Time=  1.17000E+01 Dt=  5.00000E-02 [y] snes_conv_reason:    3
  newton =   1 [     252] linear =   134 [     33716] cuts =  0 [   0]
  --> max chng: dpmx=   1.7262E+00 dtmpmx=   5.1594E-02

== TH FLOW =====================================================================
 Step    247 Time=  1.17500E+01 Dt=  5.00000E-02 [y] snes_conv_reason:    3
  newton =   1 [     253] linear =   133 [     33849] cuts =  0 [   0]
  --> max chng: dpmx=   1.7236E+00 dtmpmx=   5.1450E-02

== TH FLOW =====================================================================
 Step    248 Time=  1.18000E+01 Dt=  5.00000E-02 [y] snes_conv_reason:    3
  newton =   1 [     254] linear =   133 [     33982] cuts =  0 [   0]
  --> max chng: dpmx=   1.7207E+00 dtmpmx=   5.1269E-02

== TH FLOW =====================================================================
 Step    249 Time=  1.18500E+01 Dt=  5.00000E-02 [y] snes_conv_reason:    3
  newton =   1 [     255] linear =   132 [     34114] cuts =  0 [   0]
  --> max chng: dpmx=   1.7193E+00 dtmpmx=   5.1149E-02

== TH FLOW =====================================================================
 Step    250 Time=  1.19000E+01 Dt=  5.00000E-02 [y] snes_conv_reason:    3
  newton =   1 [     256] linear =   131 [     34245] cuts =  0 [   0]
  --> max chng: dpmx=   1.7164E+00 dtmpmx=   5.1086E-02

== TH FLOW =====================================================================
 Step    251 Time=  1.19500E+01 Dt=  5.00000E-02 [y] snes_conv_reason:    3
  newton =   1 [     257] linear =   133 [     34378] cuts =  0 [   0]
  --> max chng: dpmx=   1.7134E+00 dtmpmx=   5.0985E-02

== TH FLOW =====================================================================
 Step    252 Time=  1.20000E+01 Dt=  5.00000E-02 [y] snes_conv_reason:    3
  newton =   1 [     258] linear =   137 [     34515] cuts =  0 [   0]
  --> max chng: dpmx=   1.7118E+00 dtmpmx=   5.0848E-02

== TH FLOW =====================================================================
 Step    253 Time=  1.20500E+01 Dt=  5.00000E-02 [y] snes_conv_reason:    3
  newton =   1 [     259] linear =   124 [     34639] cuts =  0 [   0]
  --> max chng: dpmx=   1.7091E+00 dtmpmx=   5.0673E-02

== TH FLOW =====================================================================
 Step    254 Time=  1.21000E+01 Dt=  5.00000E-02 [y] snes_conv_reason:    3
  newton =   1 [     260] linear =   133 [     34772] cuts =  0 [   0]
  --> max chng: dpmx=   1.7073E+00 dtmpmx=   5.0552E-02

== TH FLOW =====================================================================
 Step    255 Time=  1.21500E+01 Dt=  5.00000E-02 [y] snes_conv_reason:    3
  newton =   1 [     261] linear =   133 [     34905] cuts =  0 [   0]
  --> max chng: dpmx=   1.7044E+00 dtmpmx=   5.0492E-02

== TH FLOW =====================================================================
 Step    256 Time=  1.22000E+01 Dt=  5.00000E-02 [y] snes_conv_reason:    3
  newton =   1 [     262] linear =   133 [     35038] cuts =  0 [   0]
  --> max chng: dpmx=   1.7010E+00 dtmpmx=   5.0396E-02

== TH FLOW =====================================================================
 Step    257 Time=  1.22500E+01 Dt=  5.00000E-02 [y] snes_conv_reason:    3
  newton =   1 [     263] linear =   134 [     35172] cuts =  0 [   0]
  --> max chng: dpmx=   1.6998E+00 dtmpmx=   5.0263E-02

[...]
 Step    493 Time=  2.40500E+01 Dt=  5.00000E-02 [y] snes_conv_reason:    3
  newton =   1 [     499] linear =   131 [     66268] cuts =  0 [   0]
  --> max chng: dpmx=   1.1558E+00 dtmpmx=   3.3724E-02

== TH FLOW =====================================================================
 Step    494 Time=  2.41000E+01 Dt=  5.00000E-02 [y] snes_conv_reason:    3
  newton =   1 [     500] linear =   132 [     66400] cuts =  0 [   0]
  --> max chng: dpmx=   1.1536E+00 dtmpmx=   3.3682E-02

== TH FLOW =====================================================================
 Step    495 Time=  2.41500E+01 Dt=  5.00000E-02 [y] snes_conv_reason:    3
  newton =   1 [     501] linear =   132 [     66532] cuts =  0 [   0]
  --> max chng: dpmx=   1.1510E+00 dtmpmx=   3.3656E-02

== TH FLOW =====================================================================
 Step    496 Time=  2.42000E+01 Dt=  5.00000E-02 [y] snes_conv_reason:    3
  newton =   1 [     502] linear =   132 [     66664] cuts =  0 [   0]
  --> max chng: dpmx=   1.1488E+00 dtmpmx=   3.3618E-02

== TH FLOW =====================================================================
 Step    497 Time=  2.42500E+01 Dt=  5.00000E-02 [y] snes_conv_reason:    3
  newton =   1 [     503] linear =   132 [     66796] cuts =  0 [   0]
  --> max chng: dpmx=   1.1467E+00 dtmpmx=   3.3568E-02

== TH FLOW =====================================================================
 Step    498 Time=  2.43000E+01 Dt=  5.00000E-02 [y] snes_conv_reason:    3
  newton =   1 [     504] linear =   133 [     66929] cuts =  0 [   0]
  --> max chng: dpmx=   1.1448E+00 dtmpmx=   3.3505E-02

== TH FLOW =====================================================================
 Step    499 Time=  2.43500E+01 Dt=  5.00000E-02 [y] snes_conv_reason:    3
  newton =   1 [     505] linear =   133 [     67062] cuts =  0 [   0]
  --> max chng: dpmx=   1.1420E+00 dtmpmx=   3.3465E-02

== TH FLOW =====================================================================
 Step    500 Time=  2.44000E+01 Dt=  5.00000E-02 [y] snes_conv_reason:    3
  newton =   1 [     506] linear =   133 [     67195] cuts =  0 [   0]
  --> max chng: dpmx=   1.1396E+00 dtmpmx=   3.3439E-02

== TH FLOW =====================================================================
 Step    501 Time=  2.44500E+01 Dt=  5.00000E-02 [y] snes_conv_reason:    3
  newton =   1 [     507] linear =   126 [     67321] cuts =  0 [   0]
  --> max chng: dpmx=   1.1376E+00 dtmpmx=   3.3402E-02

== TH FLOW =====================================================================
 Step    502 Time=  2.45000E+01 Dt=  5.00000E-02 [y] snes_conv_reason:    3
  newton =   1 [     508] linear =   122 [     67443] cuts =  0 [   0]
  --> max chng: dpmx=   1.1350E+00 dtmpmx=   3.3352E-02

== TH FLOW =====================================================================
 Step    503 Time=  2.45500E+01 Dt=  5.00000E-02 [y] snes_conv_reason:    3
  newton =   1 [     509] linear =   132 [     67575] cuts =  0 [   0]
  --> max chng: dpmx=   1.1333E+00 dtmpmx=   3.3289E-02

== TH FLOW =====================================================================
 Step    504 Time=  2.46000E+01 Dt=  5.00000E-02 [y] snes_conv_reason:    3
  newton =   1 [     510] linear =   127 [     67702] cuts =  0 [   0]
  --> max chng: dpmx=   1.1304E+00 dtmpmx=   3.3251E-02

== TH FLOW =====================================================================
 Step    505 Time=  2.46500E+01 Dt=  5.00000E-02 [y] snes_conv_reason:    3
  newton =   1 [     511] linear =   131 [     67833] cuts =  0 [   0]
  --> max chng: dpmx=   1.1285E+00 dtmpmx=   3.3226E-02

== TH FLOW =====================================================================
 Step    506 Time=  2.47000E+01 Dt=  5.00000E-02 [y] snes_conv_reason:    3
  newton =   1 [     512] linear =   134 [     67967] cuts =  0 [   0]
  --> max chng: dpmx=   1.1258E+00 dtmpmx=   3.3188E-02

== TH FLOW =====================================================================
 Step    507 Time=  2.47500E+01 Dt=  5.00000E-02 [y] snes_conv_reason:    3
  newton =   1 [     513] linear =   132 [     68099] cuts =  0 [   0]
  --> max chng: dpmx=   1.1242E+00 dtmpmx=   3.3138E-02

== TH FLOW =====================================================================
 Step    508 Time=  2.48000E+01 Dt=  5.00000E-02 [y] snes_conv_reason:    3
  newton =   1 [     514] linear =   132 [     68231] cuts =  0 [   0]
  --> max chng: dpmx=   1.1215E+00 dtmpmx=   3.3076E-02

== TH FLOW =====================================================================
 Step    509 Time=  2.48500E+01 Dt=  5.00000E-02 [y] snes_conv_reason:    3
  newton =   1 [     515] linear =   132 [     68363] cuts =  0 [   0]
  --> max chng: dpmx=   1.1189E+00 dtmpmx=   3.3040E-02

== TH FLOW =====================================================================
 Step    510 Time=  2.49000E+01 Dt=  5.00000E-02 [y] snes_conv_reason:    3
  newton =   1 [     516] linear =   131 [     68494] cuts =  0 [   0]
  --> max chng: dpmx=   1.1171E+00 dtmpmx=   3.3015E-02

== TH FLOW =====================================================================
 Step    511 Time=  2.49500E+01 Dt=  5.00000E-02 [y] snes_conv_reason:    3
  newton =   1 [     517] linear =   133 [     68627] cuts =  0 [   0]
  --> max chng: dpmx=   1.1143E+00 dtmpmx=   3.2977E-02

== TH FLOW =====================================================================
 Step    512 Time=  2.50000E+01 Dt=  5.00000E-02 [y] snes_conv_reason:    3
  newton =   1 [     518] linear =   128 [     68755] cuts =  0 [   0]
  --> max chng: dpmx=   1.1127E+00 dtmpmx=   3.2928E-02

== TH FLOW =====================================================================
 Step    513 Time=  2.50500E+01 Dt=  5.00000E-02 [y] snes_conv_reason:    3
  newton =   1 [     519] linear =   132 [     68887] cuts =  0 [   0]
  --> max chng: dpmx=   1.1097E+00 dtmpmx=   3.2866E-02

== TH FLOW =====================================================================
 Step    514 Time=  2.51000E+01 Dt=  5.00000E-02 [y] snes_conv_reason:    3
  newton =   1 [     520] linear =   133 [     69020] cuts =  0 [   0]
  --> max chng: dpmx=   1.1077E+00 dtmpmx=   3.2833E-02

== TH FLOW =====================================================================
 Step    515 Time=  2.51500E+01 Dt=  5.00000E-02 [y] snes_conv_reason:    3
  newton =   1 [     521] linear =   128 [     69148] cuts =  0 [   0]
  --> max chng: dpmx=   1.1058E+00 dtmpmx=   3.2807E-02

== TH FLOW =====================================================================
 Step    516 Time=  2.52000E+01 Dt=  5.00000E-02 [y] snes_conv_reason:    3
  newton =   1 [     522] linear =   128 [     69276] cuts =  0 [   0]
  --> max chng: dpmx=   1.1032E+00 dtmpmx=   3.2770E-02

== TH FLOW =====================================================================
 Step    517 Time=  2.52500E+01 Dt=  5.00000E-02 [y] snes_conv_reason:    3
  newton =   1 [     523] linear =   129 [     69405] cuts =  0 [   0]
  --> max chng: dpmx=   1.1011E+00 dtmpmx=   3.2720E-02

== TH FLOW =====================================================================
 Step    518 Time=  2.53000E+01 Dt=  5.00000E-02 [y] snes_conv_reason:    3
  newton =   1 [     524] linear =   130 [     69535] cuts =  0 [   0]
  --> max chng: dpmx=   1.0984E+00 dtmpmx=   3.2659E-02

== TH FLOW =====================================================================
 Step    519 Time=  2.53500E+01 Dt=  5.00000E-02 [y] snes_conv_reason:    3
  newton =   1 [     525] linear =   130 [     69665] cuts =  0 [   0]
  --> max chng: dpmx=   1.0962E+00 dtmpmx=   3.2628E-02

== TH FLOW =====================================================================
 Step    520 Time=  2.54000E+01 Dt=  5.00000E-02 [y] snes_conv_reason:    3
  newton =   1 [     526] linear =   129 [     69794] cuts =  0 [   0]
  --> max chng: dpmx=   1.0943E+00 dtmpmx=   3.2602E-02

== TH FLOW =====================================================================
 Step    521 Time=  2.54500E+01 Dt=  5.00000E-02 [y] snes_conv_reason:    3
  newton =   1 [     527] linear =   130 [     69924] cuts =  0 [   0]
  --> max chng: dpmx=   1.0917E+00 dtmpmx=   3.2565E-02

== TH FLOW =====================================================================
 Step    522 Time=  2.55000E+01 Dt=  5.00000E-02 [y] snes_conv_reason:    3
  newton =   1 [     528] linear =   126 [     70050] cuts =  0 [   0]
  --> max chng: dpmx=   1.0896E+00 dtmpmx=   3.2516E-02

== TH FLOW =====================================================================
 Step    523 Time=  2.55500E+01 Dt=  5.00000E-02 [y] snes_conv_reason:    3
  newton =   1 [     529] linear =   132 [     70182] cuts =  0 [   0]
  --> max chng: dpmx=   1.0871E+00 dtmpmx=   3.2455E-02

== TH FLOW =====================================================================
 Step    524 Time=  2.56000E+01 Dt=  5.00000E-02 [y] snes_conv_reason:    3
  newton =   1 [     530] linear =   132 [     70314] cuts =  0 [   0]
  --> max chng: dpmx=   1.0850E+00 dtmpmx=   3.2426E-02

== TH FLOW =====================================================================
 Step    525 Time=  2.56500E+01 Dt=  5.00000E-02 [y] snes_conv_reason:    3
  newton =   1 [     531] linear =   131 [     70445] cuts =  0 [   0]
  --> max chng: dpmx=   1.0827E+00 dtmpmx=   3.2400E-02

== TH FLOW =====================================================================
 Step    526 Time=  2.57000E+01 Dt=  5.00000E-02 [y] snes_conv_reason:    3
  newton =   1 [     532] linear =   129 [     70574] cuts =  0 [   0]
  --> max chng: dpmx=   1.0805E+00 dtmpmx=   3.2363E-02

== TH FLOW =====================================================================
 Step    527 Time=  2.57500E+01 Dt=  5.00000E-02 [y] snes_conv_reason:    3
  newton =   1 [     533] linear =   128 [     70702] cuts =  0 [   0]
  --> max chng: dpmx=   1.0780E+00 dtmpmx=   3.2314E-02

== TH FLOW =====================================================================
 Step    528 Time=  2.58000E+01 Dt=  5.00000E-02 [y] snes_conv_reason:    3
  newton =   1 [     534] linear =   127 [     70829] cuts =  0 [   0]
  --> max chng: dpmx=   1.0761E+00 dtmpmx=   3.2254E-02

== TH FLOW =====================================================================
 Step    529 Time=  2.58500E+01 Dt=  5.00000E-02 [y] snes_conv_reason:    3
  newton =   1 [     535] linear =   128 [     70957] cuts =  0 [   0]
  --> max chng: dpmx=   1.0734E+00 dtmpmx=   3.2227E-02

== TH FLOW =====================================================================
 Step    530 Time=  2.59000E+01 Dt=  5.00000E-02 [y] snes_conv_reason:    3
  newton =   1 [     536] linear =   132 [     71089] cuts =  0 [   0]
  --> max chng: dpmx=   1.0711E+00 dtmpmx=   3.2201E-02

== TH FLOW =====================================================================
 Step    531 Time=  2.59500E+01 Dt=  5.00000E-02 [y] snes_conv_reason:    3
  newton =   1 [     537] linear =   124 [     71213] cuts =  0 [   0]
  --> max chng: dpmx=   1.0693E+00 dtmpmx=   3.2164E-02

== TH FLOW =====================================================================
 Step    532 Time=  2.60000E+01 Dt=  5.00000E-02 [y] snes_conv_reason:    3
  newton =   1 [     538] linear =   127 [     71340] cuts =  0 [   0]
  --> max chng: dpmx=   1.0663E+00 dtmpmx=   3.2115E-02

== TH FLOW =====================================================================
 Step    533 Time=  2.60500E+01 Dt=  5.00000E-02 [y] snes_conv_reason:    3
  newton =   1 [     539] linear =   108 [     71448] cuts =  0 [   0]
  --> max chng: dpmx=   1.0643E+00 dtmpmx=   3.2055E-02

== TH FLOW =====================================================================
 Step    534 Time=  2.61000E+01 Dt=  5.00000E-02 [y] snes_conv_reason:    3
  newton =   1 [     540] linear =   126 [     71574] cuts =  0 [   0]
  --> max chng: dpmx=   1.0623E+00 dtmpmx=   3.2030E-02

== TH FLOW =====================================================================
 Step    535 Time=  2.61500E+01 Dt=  5.00000E-02 [y] snes_conv_reason:    3
  newton =   1 [     541] linear =   122 [     71696] cuts =  0 [   0]
  --> max chng: dpmx=   1.0597E+00 dtmpmx=   3.2004E-02

== TH FLOW =====================================================================
 Step    536 Time=  2.62000E+01 Dt=  5.00000E-02 [y] snes_conv_reason:    3
  newton =   1 [     542] linear =   133 [     71829] cuts =  0 [   0]
  --> max chng: dpmx=   1.0576E+00 dtmpmx=   3.1967E-02

== TH FLOW =====================================================================
 Step    537 Time=  2.62500E+01 Dt=  5.00000E-02 [y] snes_conv_reason:    3
  newton =   1 [     543] linear =   136 [     71965] cuts =  0 [   0]
  --> max chng: dpmx=   1.0550E+00 dtmpmx=   3.1919E-02

== TH FLOW =====================================================================
 Step    538 Time=  2.63000E+01 Dt=  5.00000E-02 [y] snes_conv_reason:    3
  newton =   1 [     544] linear =   135 [     72100] cuts =  0 [   0]
  --> max chng: dpmx=   1.0529E+00 dtmpmx=   3.1859E-02

== TH FLOW =====================================================================
 Step    539 Time=  2.63500E+01 Dt=  5.00000E-02 [y] snes_conv_reason:    3
  newton =   1 [     545] linear =   136 [     72236] cuts =  0 [   0]
  --> max chng: dpmx=   1.0507E+00 dtmpmx=   3.1837E-02

== TH FLOW =====================================================================
 Step    540 Time=  2.64000E+01 Dt=  5.00000E-02 [y] snes_conv_reason:    3
  newton =   1 [     546] linear =   130 [     72366] cuts =  0 [   0]
  --> max chng: dpmx=   1.0483E+00 dtmpmx=   3.1810E-02

== TH FLOW =====================================================================
 Step    541 Time=  2.64500E+01 Dt=  5.00000E-02 [y] snes_conv_reason:    3
  newton =   1 [     547] linear =   135 [     72501] cuts =  0 [   0]
  --> max chng: dpmx=   1.0461E+00 dtmpmx=   3.1773E-02

== TH FLOW =====================================================================
 Step    542 Time=  2.65000E+01 Dt=  5.00000E-02 [y] snes_conv_reason:    3
  newton =   1 [     548] linear =   136 [     72637] cuts =  0 [   0]
  --> max chng: dpmx=   1.0435E+00 dtmpmx=   3.1725E-02

== TH FLOW =====================================================================
 Step    543 Time=  2.65500E+01 Dt=  5.00000E-02 [y] snes_conv_reason:    3
  newton =   1 [     549] linear =   132 [     72769] cuts =  0 [   0]
  --> max chng: dpmx=   1.0418E+00 dtmpmx=   3.1666E-02

== TH FLOW =====================================================================
 Step    544 Time=  2.66000E+01 Dt=  5.00000E-02 [y] snes_conv_reason:    3
  newton =   1 [     550] linear =   135 [     72904] cuts =  0 [   0]
  --> max chng: dpmx=   1.0392E+00 dtmpmx=   3.1646E-02

== TH FLOW =====================================================================
 Step    545 Time=  2.66500E+01 Dt=  5.00000E-02 [y] snes_conv_reason:    3
  newton =   1 [     551] linear =   133 [     73037] cuts =  0 [   0]
  --> max chng: dpmx=   1.0368E+00 dtmpmx=   3.1619E-02

== TH FLOW =====================================================================
 Step    546 Time=  2.67000E+01 Dt=  5.00000E-02 [y] snes_conv_reason:    3
  newton =   1 [     552] linear =   132 [     73169] cuts =  0 [   0]
  --> max chng: dpmx=   1.0346E+00 dtmpmx=   3.1582E-02

== TH FLOW =====================================================================
 Step    547 Time=  2.67500E+01 Dt=  5.00000E-02 [y] snes_conv_reason:    3
  newton =   1 [     553] linear =   134 [     73303] cuts =  0 [   0]
  --> max chng: dpmx=   1.0345E+00 dtmpmx=   3.1534E-02

== TH FLOW =====================================================================
 Step    548 Time=  2.68000E+01 Dt=  5.00000E-02 [y] snes_conv_reason:    3
  newton =   1 [     554] linear =   132 [     73435] cuts =  0 [   0]
  --> max chng: dpmx=   1.0365E+00 dtmpmx=   3.1475E-02

== TH FLOW =====================================================================
 Step    549 Time=  2.68500E+01 Dt=  5.00000E-02 [y] snes_conv_reason:    3
  newton =   1 [     555] linear =   133 [     73568] cuts =  0 [   0]
  --> max chng: dpmx=   1.0384E+00 dtmpmx=   3.1457E-02

== TH FLOW =====================================================================
 Step    550 Time=  2.69000E+01 Dt=  5.00000E-02 [y] snes_conv_reason:    3
  newton =   1 [     556] linear =   133 [     73701] cuts =  0 [   0]
  --> max chng: dpmx=   1.0405E+00 dtmpmx=   3.1430E-02

== TH FLOW =====================================================================
 Step    551 Time=  2.69500E+01 Dt=  5.00000E-02 [y] snes_conv_reason:    3
  newton =   1 [     557] linear =   133 [     73834] cuts =  0 [   0]
  --> max chng: dpmx=   1.0426E+00 dtmpmx=   3.1393E-02

== TH FLOW =====================================================================
 Step    552 Time=  2.70000E+01 Dt=  5.00000E-02 [y] snes_conv_reason:    3
  newton =   1 [     558] linear =   133 [     73967] cuts =  0 [   0]
  --> max chng: dpmx=   1.0447E+00 dtmpmx=   3.1345E-02

== TH FLOW =====================================================================
 Step    553 Time=  2.70500E+01 Dt=  5.00000E-02 [y] snes_conv_reason:    3
  newton =   1 [     559] linear =   133 [     74100] cuts =  0 [   0]
  --> max chng: dpmx=   1.0467E+00 dtmpmx=   3.1287E-02

== TH FLOW =====================================================================
 Step    554 Time=  2.71000E+01 Dt=  5.00000E-02 [y] snes_conv_reason:    3
  newton =   1 [     560] linear =   133 [     74233] cuts =  0 [   0]
  --> max chng: dpmx=   1.0487E+00 dtmpmx=   3.1271E-02

== TH FLOW =====================================================================
 Step    555 Time=  2.71500E+01 Dt=  5.00000E-02 [y] snes_conv_reason:    3
  newton =   1 [     561] linear =   133 [     74366] cuts =  0 [   0]
  --> max chng: dpmx=   1.0507E+00 dtmpmx=   3.1244E-02

== TH FLOW =====================================================================
 Step    556 Time=  2.72000E+01 Dt=  5.00000E-02 [y] snes_conv_reason:    3
  newton =   1 [     562] linear =   133 [     74499] cuts =  0 [   0]
  --> max chng: dpmx=   1.0528E+00 dtmpmx=   3.1206E-02

== TH FLOW =====================================================================
 Step    557 Time=  2.72500E+01 Dt=  5.00000E-02 [y] snes_conv_reason:    3
  newton =   1 [     563] linear =   133 [     74632] cuts =  0 [   0]
  --> max chng: dpmx=   1.0549E+00 dtmpmx=   3.1159E-02

== TH FLOW =====================================================================
 Step    558 Time=  2.73000E+01 Dt=  5.00000E-02 [y] snes_conv_reason:    3
  newton =   1 [     564] linear =   133 [     74765] cuts =  0 [   0]
  --> max chng: dpmx=   1.0570E+00 dtmpmx=   3.1103E-02

== TH FLOW =====================================================================
 Step    559 Time=  2.73500E+01 Dt=  5.00000E-02 [y] snes_conv_reason:    3
  newton =   1 [     565] linear =   130 [     74895] cuts =  0 [   0]
  --> max chng: dpmx=   1.0590E+00 dtmpmx=   3.1087E-02

== TH FLOW =====================================================================
 Step    560 Time=  2.74000E+01 Dt=  5.00000E-02 [y] snes_conv_reason:    3
  newton =   1 [     566] linear =   131 [     75026] cuts =  0 [   0]
  --> max chng: dpmx=   1.0609E+00 dtmpmx=   3.1060E-02

== TH FLOW =====================================================================
 Step    561 Time=  2.74500E+01 Dt=  5.00000E-02 [y] snes_conv_reason:    3
  newton =   1 [     567] linear =   133 [     75159] cuts =  0 [   0]
  --> max chng: dpmx=   1.0631E+00 dtmpmx=   3.1022E-02

== TH FLOW =====================================================================
 Step    562 Time=  2.75000E+01 Dt=  5.00000E-02 [y] snes_conv_reason:    3
  newton =   1 [     568] linear =   134 [     75293] cuts =  0 [   0]
  --> max chng: dpmx=   1.0652E+00 dtmpmx=   3.0975E-02

 Wall Clock Time:  1.7924E+02 [sec]   2.9873E+00 [min]   4.9789E-02 [hr]
