
===================
  PFLOTRAN v3.0.1
===================

 Extent of Gridded Domain
  X: 2.5000000000000000 - 97.500000000000000
  Y: 2.5000000000000000 - 1277.5000000000000
  Z: 2.5000000000000000 - 2.5000000000000000


=+=+=+=+=+=+=+=+=+=+=+=+=+=+=+=+=+=+=+=+=+=+=+=+=+=+=+=+=+=+=+=+=+=+=+=+=+=+=+=+

  Initial Condition

--------------------------------------------------------------------------------
          Flow Condition:   initial
                  Region:   all
--------------------------------------------------------------------------------

  Flow Condition: initial
    Synchronize time with update: no
    Time units: yr
    Length units: m
      Datum:
        Dataset: Unnamed Ascii Dataset
          Type: dataset_ascii_type
          Transient: no
          Array Rank:  3

    Sub Condition: pressure
      Type: hydrostatic
      Gradient:
        Dataset: Unnamed Ascii Dataset
          Type: dataset_ascii_type
          Transient: no
          Array Rank:  3
      Data:
        Dataset: Unnamed Ascii Dataset
          Type: dataset_ascii_type
          Transient: no
          Array Rank:  1

    Sub Condition: temperature
      Type: dirichlet
      Gradient:
      Data:
        Dataset: Unnamed Ascii Dataset
          Type: dataset_ascii_type
          Transient: no
          Array Rank:  1

--------------------------------------------------------------------------------

=+=+=+=+=+=+=+=+=+=+=+=+=+=+=+=+=+=+=+=+=+=+=+=+=+=+=+=+=+=+=+=+=+=+=+=+=+=+=+=+

  Boundary Condition

--------------------------------------------------------------------------------
          Flow Condition:   initial
                  Region:   north
--------------------------------------------------------------------------------

  Flow Condition: initial
    Synchronize time with update: no
    Time units: yr
    Length units: m
      Datum:
        Dataset: Unnamed Ascii Dataset
          Type: dataset_ascii_type
          Transient: no
          Array Rank:  3

    Sub Condition: pressure
      Type: hydrostatic
      Gradient:
        Dataset: Unnamed Ascii Dataset
          Type: dataset_ascii_type
          Transient: no
          Array Rank:  3
      Data:
        Dataset: Unnamed Ascii Dataset
          Type: dataset_ascii_type
          Transient: no
          Array Rank:  1

    Sub Condition: temperature
      Type: dirichlet
      Gradient:
      Data:
        Dataset: Unnamed Ascii Dataset
          Type: dataset_ascii_type
          Transient: no
          Array Rank:  1

--------------------------------------------------------------------------------

=+=+=+=+=+=+=+=+=+=+=+=+=+=+=+=+=+=+=+=+=+=+=+=+=+=+=+=+=+=+=+=+=+=+=+=+=+=+=+=+

  Boundary Condition

--------------------------------------------------------------------------------
          Flow Condition:   initial
                  Region:   south
--------------------------------------------------------------------------------

  Flow Condition: initial
    Synchronize time with update: no
    Time units: yr
    Length units: m
      Datum:
        Dataset: Unnamed Ascii Dataset
          Type: dataset_ascii_type
          Transient: no
          Array Rank:  3

    Sub Condition: pressure
      Type: hydrostatic
      Gradient:
        Dataset: Unnamed Ascii Dataset
          Type: dataset_ascii_type
          Transient: no
          Array Rank:  3
      Data:
        Dataset: Unnamed Ascii Dataset
          Type: dataset_ascii_type
          Transient: no
          Array Rank:  1

    Sub Condition: temperature
      Type: dirichlet
      Gradient:
      Data:
        Dataset: Unnamed Ascii Dataset
          Type: dataset_ascii_type
          Transient: no
          Array Rank:  1

--------------------------------------------------------------------------------

=+=+=+=+=+=+=+=+=+=+=+=+=+=+=+=+=+=+=+=+=+=+=+=+=+=+=+=+=+=+=+=+=+=+=+=+=+=+=+=+

  Source Sink

--------------------------------------------------------------------------------
          Flow Condition:   injection
                  Region:   heatpump_inject0
--------------------------------------------------------------------------------

  Flow Condition: injection
    Synchronize time with update: no
    Time units: yr
    Length units: m
      Datum:

    Sub Condition: rate
      Type: scaled volumetric rate
      Gradient:
      Data:
        Dataset: Unnamed Ascii Dataset
          Type: dataset_ascii_type
          Is transient?: yes
          Number of times:      3
          Is cyclic?: no
          Buffer:
            Rank:  2
            Dims:    1   3
            Buffer Slice Size:   0
          Array Rank:  1

    Sub Condition: temperature
      Type: dirichlet
      Gradient:
      Data:
        Dataset: Unnamed Ascii Dataset
          Type: dataset_ascii_type
          Transient: no
          Array Rank:  1

--------------------------------------------------------------------------------

 Requested processors =    32

FLOW Time Stepper
                 acceleration: on
       acceleration threshold: 5
       number of ramp entries: 5
                ramp entry #1: 2.0000
                ramp entry #2: 2.0000
                ramp entry #3: 2.0000
                ramp entry #4: 2.0000
                ramp entry #5: 2.0000
                ramp entry #6: 1.8000
                ramp entry #7: 1.6000
                ramp entry #8: 1.4000
                ramp entry #9: 1.2000
               ramp entry #10: 1.0000
               ramp entry #11: 1.0000
               ramp entry #12: 1.0000
               ramp entry #13: 1.0000
      maximum number of steps: 999999
constant time steps threshold: 5
       maximum number of cuts: 16
             reduction factor: 5.000000E-01
        maximum growth factor: 2.000000E+00

FLOW Newton Solver
                         atol: 1.000000E-50
                         rtol: 1.000000E-03
                         stol: 1.000000E-08
                         dtol: 1.000000E+04
                      maxnorm: 1.000000E+20
                    inftolres: -9.990000E+02
                    inftolupd: 1.000000E+00
                 inftolrelupd: -9.990000E+02
                 inftolsclres: -9.990000E+02
                     max iter: 50
                     min iter: 1
                         maxf: 10000
                  matrix type: baij
         precond. matrix type: baij
               inexact newton: off
            print convergence: on
   print detailed convergence: off
          check infinity norm: on

FLOW Linear Solver
                       solver: bcgs
               preconditioner: bjacobi
                         atol: 1.000000E-50
                         rtol: 1.000000E-05
                         dtol: 1.000000E+04
            maximum iteration: 10000

== TH FLOW =====================================================================
 Step      1 Time=  1.00000E-05 Dt=  1.00000E-05 [y] snes_conv_reason:   11
  newton =   1 [       1] linear =   117 [       117] cuts =  0 [   0]
  --> max chng: dpmx=   7.9673E-02 dtmpmx=   2.6408E-08

== TH FLOW =====================================================================
 Step      2 Time=  3.00000E-05 Dt=  2.00000E-05 [y] snes_conv_reason:   11
  newton =   1 [       2] linear =   123 [       240] cuts =  0 [   0]
  --> max chng: dpmx=   6.5838E-03 dtmpmx=   5.2625E-08

== TH FLOW =====================================================================
 Step      3 Time=  7.00000E-05 Dt=  4.00000E-05 [y] snes_conv_reason:   11
  newton =   1 [       3] linear =   122 [       362] cuts =  0 [   0]
  --> max chng: dpmx=   2.7035E-04 dtmpmx=   1.0524E-07

== TH FLOW =====================================================================
 Step      4 Time=  1.50000E-04 Dt=  8.00000E-05 [y] snes_conv_reason:   11
  newton =   1 [       4] linear =   134 [       496] cuts =  0 [   0]
  --> max chng: dpmx=   5.2376E-06 dtmpmx=   2.1047E-07

== TH FLOW =====================================================================
 Step      5 Time=  3.10000E-04 Dt=  1.60000E-04 [y] snes_conv_reason:   11
  newton =   1 [       5] linear =   128 [       624] cuts =  0 [   0]
  --> max chng: dpmx=   1.4500E-06 dtmpmx=   4.2094E-07

== TH FLOW =====================================================================
 Step      6 Time=  6.30000E-04 Dt=  3.20000E-04 [y] snes_conv_reason:   11
  newton =   1 [       6] linear =   128 [       752] cuts =  0 [   0]
  --> max chng: dpmx=   2.9841E-06 dtmpmx=   8.4188E-07

== TH FLOW =====================================================================
 Step      7 Time=  1.27000E-03 Dt=  6.40000E-04 [y] snes_conv_reason:   11
  newton =   1 [       7] linear =   122 [       874] cuts =  0 [   0]
  --> max chng: dpmx=   6.2840E-06 dtmpmx=   1.6838E-06

== TH FLOW =====================================================================
 Step      8 Time=  2.55000E-03 Dt=  1.28000E-03 [y] snes_conv_reason:   11
  newton =   1 [       8] linear =   124 [       998] cuts =  0 [   0]
  --> max chng: dpmx=   1.3868E-05 dtmpmx=   3.3675E-06

== TH FLOW =====================================================================
 Step      9 Time=  5.11000E-03 Dt=  2.56000E-03 [y] snes_conv_reason:   11
  newton =   1 [       9] linear =   127 [      1125] cuts =  0 [   0]
  --> max chng: dpmx=   3.2886E-05 dtmpmx=   6.7351E-06

== TH FLOW =====================================================================
 Step     10 Time=  1.02300E-02 Dt=  5.12000E-03 [y] snes_conv_reason:   11
  newton =   1 [      10] linear =   119 [      1244] cuts =  0 [   0]
  --> max chng: dpmx=   8.6138E-05 dtmpmx=   1.3470E-05

== TH FLOW =====================================================================
 Step     11 Time=  2.04700E-02 Dt=  1.02400E-02 [y] snes_conv_reason:   11
  newton =   1 [      11] linear =   132 [      1376] cuts =  0 [   0]
  --> max chng: dpmx=   2.5285E-04 dtmpmx=   2.6940E-05

== TH FLOW =====================================================================
 Step     12 Time=  4.09500E-02 Dt=  2.04800E-02 [y] snes_conv_reason:   11
  newton =   1 [      12] linear =   130 [      1506] cuts =  0 [   0]
  --> max chng: dpmx=   8.1755E-04 dtmpmx=   5.3881E-05

== TH FLOW =====================================================================
 Step     13 Time=  8.19100E-02 Dt=  4.09600E-02 [y] snes_conv_reason:   11
  newton =   1 [      13] linear =   138 [      1644] cuts =  0 [   0]
  --> max chng: dpmx=   2.8116E-03 dtmpmx=   1.0776E-04

== TH FLOW =====================================================================
 Step     14 Time=  1.00000E-01 Dt=  1.80900E-02 [y] snes_conv_reason:   11
  newton =   1 [      14] linear =   128 [      1772] cuts =  0 [   0]
  --> max chng: dpmx=   1.4744E-03 dtmpmx=   4.7593E-05

== TH FLOW =====================================================================
 Step     15 Time=  1.50000E-01 Dt=  5.00000E-02 [y] snes_conv_reason:   11
  newton =   1 [      15] linear =   139 [      1911] cuts =  0 [   0]
  --> max chng: dpmx=   5.7111E-03 dtmpmx=   1.3154E-04

== TH FLOW =====================================================================
 Step     16 Time=  2.00000E-01 Dt=  5.00000E-02 [y] snes_conv_reason:   11
  newton =   1 [      16] linear =   139 [      2050] cuts =  0 [   0]
  --> max chng: dpmx=   7.2725E-03 dtmpmx=   1.3154E-04

== TH FLOW =====================================================================
 Step     17 Time=  2.50000E-01 Dt=  5.00000E-02 [y] snes_conv_reason:   11
  newton =   2 [      18] linear =   263 [      2313] cuts =  0 [   0]
  --> max chng: dpmx=   9.4552E+01 dtmpmx=   1.6281E+00

== TH FLOW =====================================================================
 Step     18 Time=  3.00000E-01 Dt=  5.00000E-02 [y] snes_conv_reason:   11
  newton =   2 [      20] linear =   265 [      2578] cuts =  0 [   0]
  --> max chng: dpmx=   1.6617E+00 dtmpmx=   6.2073E-01

== TH FLOW =====================================================================
 Step     19 Time=  3.50000E-01 Dt=  5.00000E-02 [y] snes_conv_reason:   11
  newton =   2 [      22] linear =   265 [      2843] cuts =  0 [   0]
  --> max chng: dpmx=   1.5647E+00 dtmpmx=   4.4921E-01

== TH FLOW =====================================================================
 Step     20 Time=  4.00000E-01 Dt=  5.00000E-02 [y] snes_conv_reason:   11
  newton =   2 [      24] linear =   273 [      3116] cuts =  0 [   0]
  --> max chng: dpmx=   1.4930E+00 dtmpmx=   3.6567E-01

== TH FLOW =====================================================================
 Step     21 Time=  4.50000E-01 Dt=  5.00000E-02 [y] snes_conv_reason:   11
  newton =   2 [      26] linear =   273 [      3389] cuts =  0 [   0]
  --> max chng: dpmx=   1.4295E+00 dtmpmx=   3.1326E-01

== TH FLOW =====================================================================
 Step     22 Time=  5.00000E-01 Dt=  5.00000E-02 [y] snes_conv_reason:   11
  newton =   2 [      28] linear =   265 [      3654] cuts =  0 [   0]
  --> max chng: dpmx=   1.3702E+00 dtmpmx=   2.7683E-01

== TH FLOW =====================================================================
 Step     23 Time=  5.50000E-01 Dt=  5.00000E-02 [y] snes_conv_reason:   11
  newton =   2 [      30] linear =   275 [      3929] cuts =  0 [   0]
  --> max chng: dpmx=   1.3141E+00 dtmpmx=   2.4928E-01

== TH FLOW =====================================================================
 Step     24 Time=  6.00000E-01 Dt=  5.00000E-02 [y] snes_conv_reason:    3
  newton =   1 [      31] linear =   125 [      4054] cuts =  0 [   0]
  --> max chng: dpmx=   1.2595E+00 dtmpmx=   2.2744E-01

== TH FLOW =====================================================================
 Step     25 Time=  6.50000E-01 Dt=  5.00000E-02 [y] snes_conv_reason:    3
  newton =   1 [      32] linear =   130 [      4184] cuts =  0 [   0]
  --> max chng: dpmx=   1.2073E+00 dtmpmx=   2.0980E-01

== TH FLOW =====================================================================
 Step     26 Time=  7.00000E-01 Dt=  5.00000E-02 [y] snes_conv_reason:    3
  newton =   1 [      33] linear =   131 [      4315] cuts =  0 [   0]
  --> max chng: dpmx=   1.1557E+00 dtmpmx=   1.9489E-01

== TH FLOW =====================================================================
 Step     27 Time=  7.50000E-01 Dt=  5.00000E-02 [y] snes_conv_reason:    3
  newton =   1 [      34] linear =   123 [      4438] cuts =  0 [   0]
  --> max chng: dpmx=   1.1057E+00 dtmpmx=   1.8208E-01

== TH FLOW =====================================================================
 Step     28 Time=  8.00000E-01 Dt=  5.00000E-02 [y] snes_conv_reason:    3
  newton =   1 [      35] linear =   130 [      4568] cuts =  0 [   0]
  --> max chng: dpmx=   1.0561E+00 dtmpmx=   1.7110E-01

== TH FLOW =====================================================================
 Step     29 Time=  8.50000E-01 Dt=  5.00000E-02 [y] snes_conv_reason:    3
  newton =   1 [      36] linear =   126 [      4694] cuts =  0 [   0]
  --> max chng: dpmx=   1.0076E+00 dtmpmx=   1.6137E-01

== TH FLOW =====================================================================
 Step     30 Time=  9.00000E-01 Dt=  5.00000E-02 [y] snes_conv_reason:   11
  newton =   1 [      37] linear =   126 [      4820] cuts =  0 [   0]
  --> max chng: dpmx=   9.5946E-01 dtmpmx=   1.5272E-01

== TH FLOW =====================================================================
 Step     31 Time=  9.50000E-01 Dt=  5.00000E-02 [y] snes_conv_reason:   11
  newton =   1 [      38] linear =   129 [      4949] cuts =  0 [   0]
  --> max chng: dpmx=   9.1184E-01 dtmpmx=   1.4503E-01

== TH FLOW =====================================================================
 Step     32 Time=  1.00000E+00 Dt=  5.00000E-02 [y] snes_conv_reason:   11
  newton =   1 [      39] linear =   125 [      5074] cuts =  0 [   0]
  --> max chng: dpmx=   8.6521E-01 dtmpmx=   1.3804E-01

== TH FLOW =====================================================================
 Step     33 Time=  1.05000E+00 Dt=  5.00000E-02 [y] snes_conv_reason:   11
  newton =   1 [      40] linear =   128 [      5202] cuts =  0 [   0]
  --> max chng: dpmx=   8.1877E-01 dtmpmx=   1.3172E-01

== TH FLOW =====================================================================
 Step     34 Time=  1.10000E+00 Dt=  5.00000E-02 [y] snes_conv_reason:   11
  newton =   1 [      41] linear =   124 [      5326] cuts =  0 [   0]
  --> max chng: dpmx=   7.7265E-01 dtmpmx=   1.2597E-01

== TH FLOW =====================================================================
 Step     35 Time=  1.15000E+00 Dt=  5.00000E-02 [y] snes_conv_reason:   11
  newton =   1 [      42] linear =   124 [      5450] cuts =  0 [   0]
  --> max chng: dpmx=   7.2675E-01 dtmpmx=   1.2066E-01

== TH FLOW =====================================================================
 Step     36 Time=  1.20000E+00 Dt=  5.00000E-02 [y] snes_conv_reason:   11
  newton =   1 [      43] linear =   121 [      5571] cuts =  0 [   0]
  --> max chng: dpmx=   6.8211E-01 dtmpmx=   1.1580E-01

== TH FLOW =====================================================================
 Step     37 Time=  1.25000E+00 Dt=  5.00000E-02 [y] snes_conv_reason:   11
  newton =   1 [      44] linear =   124 [      5695] cuts =  0 [   0]
  --> max chng: dpmx=   6.6073E-01 dtmpmx=   1.1131E-01

== TH FLOW =====================================================================
 Step     38 Time=  1.30000E+00 Dt=  5.00000E-02 [y] snes_conv_reason:   11
  newton =   1 [      45] linear =   117 [      5812] cuts =  0 [   0]
  --> max chng: dpmx=   6.8974E-01 dtmpmx=   1.0711E-01

== TH FLOW =====================================================================
 Step     39 Time=  1.35000E+00 Dt=  5.00000E-02 [y] snes_conv_reason:   11
  newton =   1 [      46] linear =   120 [      5932] cuts =  0 [   0]
  --> max chng: dpmx=   7.1899E-01 dtmpmx=   1.0324E-01

== TH FLOW =====================================================================
 Step     40 Time=  1.40000E+00 Dt=  5.00000E-02 [y] snes_conv_reason:   11
  newton =   1 [      47] linear =   118 [      6050] cuts =  0 [   0]
  --> max chng: dpmx=   7.4858E-01 dtmpmx=   9.9622E-02

== TH FLOW =====================================================================
 Step     41 Time=  1.45000E+00 Dt=  5.00000E-02 [y] snes_conv_reason:   11
  newton =   1 [      48] linear =   125 [      6175] cuts =  0 [   0]
  --> max chng: dpmx=   7.7835E-01 dtmpmx=   9.6213E-02

== TH FLOW =====================================================================
 Step     42 Time=  1.50000E+00 Dt=  5.00000E-02 [y] snes_conv_reason:   11
  newton =   1 [      49] linear =   133 [      6308] cuts =  0 [   0]
  --> max chng: dpmx=   8.0813E-01 dtmpmx=   9.3055E-02

== TH FLOW =====================================================================
 Step     43 Time=  1.55000E+00 Dt=  5.00000E-02 [y] snes_conv_reason:   11
  newton =   1 [      50] linear =   124 [      6432] cuts =  0 [   0]
  --> max chng: dpmx=   8.3831E-01 dtmpmx=   9.0069E-02

== TH FLOW =====================================================================
 Step     44 Time=  1.60000E+00 Dt=  5.00000E-02 [y] snes_conv_reason:   11
  newton =   1 [      51] linear =   124 [      6556] cuts =  0 [   0]
  --> max chng: dpmx=   8.6814E-01 dtmpmx=   8.7248E-02

== TH FLOW =====================================================================
 Step     45 Time=  1.65000E+00 Dt=  5.00000E-02 [y] snes_conv_reason:   11
  newton =   1 [      52] linear =   124 [      6680] cuts =  0 [   0]
  --> max chng: dpmx=   8.9822E-01 dtmpmx=   8.4612E-02

== TH FLOW =====================================================================
 Step     46 Time=  1.70000E+00 Dt=  5.00000E-02 [y] snes_conv_reason:   11
  newton =   1 [      53] linear =   110 [      6790] cuts =  0 [   0]
  --> max chng: dpmx=   9.2810E-01 dtmpmx=   8.2105E-02

== TH FLOW =====================================================================
 Step     47 Time=  1.75000E+00 Dt=  5.00000E-02 [y] snes_conv_reason:   11
  newton =   1 [      54] linear =   126 [      6916] cuts =  0 [   0]
  --> max chng: dpmx=   9.5759E-01 dtmpmx=   7.9732E-02

== TH FLOW =====================================================================
 Step     48 Time=  1.80000E+00 Dt=  5.00000E-02 [y] snes_conv_reason:   11
  newton =   1 [      55] linear =   121 [      7037] cuts =  0 [   0]
  --> max chng: dpmx=   9.8592E-01 dtmpmx=   7.7497E-02

== TH FLOW =====================================================================
 Step     49 Time=  1.85000E+00 Dt=  5.00000E-02 [y] snes_conv_reason:    3
  newton =   1 [      56] linear =   123 [      7160] cuts =  0 [   0]
  --> max chng: dpmx=   1.0138E+00 dtmpmx=   7.5364E-02

== TH FLOW =====================================================================
 Step     50 Time=  1.90000E+00 Dt=  5.00000E-02 [y] snes_conv_reason:    3
  newton =   1 [      57] linear =   123 [      7283] cuts =  0 [   0]
  --> max chng: dpmx=   1.0400E+00 dtmpmx=   7.3341E-02

== TH FLOW =====================================================================
 Step     51 Time=  1.95000E+00 Dt=  5.00000E-02 [y] snes_conv_reason:    3
  newton =   1 [      58] linear =   119 [      7402] cuts =  0 [   0]
  --> max chng: dpmx=   1.0644E+00 dtmpmx=   7.1423E-02

== TH FLOW =====================================================================
 Step     52 Time=  2.00000E+00 Dt=  5.00000E-02 [y] snes_conv_reason:    3
  newton =   1 [      59] linear =   127 [      7529] cuts =  0 [   0]
  --> max chng: dpmx=   1.0858E+00 dtmpmx=   6.9586E-02

== TH FLOW =====================================================================
 Step     53 Time=  2.05000E+00 Dt=  5.00000E-02 [y] snes_conv_reason:    3
  newton =   1 [      60] linear =   119 [      7648] cuts =  0 [   0]
  --> max chng: dpmx=   1.1038E+00 dtmpmx=   6.7841E-02

== TH FLOW =====================================================================
 Step     54 Time=  2.10000E+00 Dt=  5.00000E-02 [y] snes_conv_reason:    3
  newton =   1 [      61] linear =   119 [      7767] cuts =  0 [   0]
  --> max chng: dpmx=   1.1174E+00 dtmpmx=   6.6178E-02

== TH FLOW =====================================================================
 Step     55 Time=  2.15000E+00 Dt=  5.00000E-02 [y] snes_conv_reason:    3
  newton =   1 [      62] linear =   119 [      7886] cuts =  0 [   0]
  --> max chng: dpmx=   1.1258E+00 dtmpmx=   6.4581E-02

== TH FLOW =====================================================================
 Step     56 Time=  2.20000E+00 Dt=  5.00000E-02 [y] snes_conv_reason:    3
  newton =   1 [      63] linear =   127 [      8013] cuts =  0 [   0]
  --> max chng: dpmx=   1.1277E+00 dtmpmx=   6.3061E-02

== TH FLOW =====================================================================
 Step     57 Time=  2.25000E+00 Dt=  5.00000E-02 [y] snes_conv_reason:    3
  newton =   1 [      64] linear =   124 [      8137] cuts =  0 [   0]
  --> max chng: dpmx=   1.1223E+00 dtmpmx=   6.1607E-02

== TH FLOW =====================================================================
 Step     58 Time=  2.30000E+00 Dt=  5.00000E-02 [y] snes_conv_reason:    3
  newton =   1 [      65] linear =   121 [      8258] cuts =  0 [   0]
  --> max chng: dpmx=   1.1093E+00 dtmpmx=   6.0207E-02

== TH FLOW =====================================================================
 Step     59 Time=  2.35000E+00 Dt=  5.00000E-02 [y] snes_conv_reason:    3
  newton =   1 [      66] linear =   117 [      8375] cuts =  0 [   0]
  --> max chng: dpmx=   1.0878E+00 dtmpmx=   5.8872E-02

== TH FLOW =====================================================================
 Step     60 Time=  2.40000E+00 Dt=  5.00000E-02 [y] snes_conv_reason:    3
  newton =   1 [      67] linear =   124 [      8499] cuts =  0 [   0]
  --> max chng: dpmx=   1.0574E+00 dtmpmx=   5.7591E-02

== TH FLOW =====================================================================
 Step     61 Time=  2.45000E+00 Dt=  5.00000E-02 [y] snes_conv_reason:    3
  newton =   1 [      68] linear =   126 [      8625] cuts =  0 [   0]
  --> max chng: dpmx=   1.0183E+00 dtmpmx=   5.6354E-02

== TH FLOW =====================================================================
 Step     62 Time=  2.50000E+00 Dt=  5.00000E-02 [y] snes_conv_reason:   11
  newton =   1 [      69] linear =   127 [      8752] cuts =  0 [   0]
  --> max chng: dpmx=   9.7095E-01 dtmpmx=   5.5174E-02

== TH FLOW =====================================================================
 Step     63 Time=  2.55000E+00 Dt=  5.00000E-02 [y] snes_conv_reason:   11
  newton =   1 [      70] linear =   127 [      8879] cuts =  0 [   0]
  --> max chng: dpmx=   9.1602E-01 dtmpmx=   5.4036E-02

== TH FLOW =====================================================================
 Step     64 Time=  2.60000E+00 Dt=  5.00000E-02 [y] snes_conv_reason:   11
  newton =   1 [      71] linear =   129 [      9008] cuts =  0 [   0]
  --> max chng: dpmx=   8.5474E-01 dtmpmx=   5.2937E-02

== TH FLOW =====================================================================
 Step     65 Time=  2.65000E+00 Dt=  5.00000E-02 [y] snes_conv_reason:   11
  newton =   1 [      72] linear =   113 [      9121] cuts =  0 [   0]
  --> max chng: dpmx=   7.8856E-01 dtmpmx=   5.1887E-02

== TH FLOW =====================================================================
 Step     66 Time=  2.70000E+00 Dt=  5.00000E-02 [y] snes_conv_reason:   11
  newton =   1 [      73] linear =   126 [      9247] cuts =  0 [   0]
  --> max chng: dpmx=   7.1890E-01 dtmpmx=   5.0871E-02

== TH FLOW =====================================================================
 Step     67 Time=  2.75000E+00 Dt=  5.00000E-02 [y] snes_conv_reason:   11
  newton =   1 [      74] linear =   116 [      9363] cuts =  0 [   0]
  --> max chng: dpmx=   6.4759E-01 dtmpmx=   4.9843E-02

== TH FLOW =====================================================================
 Step     68 Time=  2.80000E+00 Dt=  5.00000E-02 [y] snes_conv_reason:   11
  newton =   1 [      75] linear =   127 [      9490] cuts =  0 [   0]
  --> max chng: dpmx=   5.7618E-01 dtmpmx=   4.8166E-02

== TH FLOW =====================================================================
 Step     69 Time=  2.85000E+00 Dt=  5.00000E-02 [y] snes_conv_reason:   11
  newton =   1 [      76] linear =   126 [      9616] cuts =  0 [   0]
  --> max chng: dpmx=   5.0653E-01 dtmpmx=   4.5899E-02

== TH FLOW =====================================================================
 Step     70 Time=  2.90000E+00 Dt=  5.00000E-02 [y] snes_conv_reason:   11
  newton =   1 [      77] linear =   131 [      9747] cuts =  0 [   0]
  --> max chng: dpmx=   4.3975E-01 dtmpmx=   4.3004E-02

== TH FLOW =====================================================================
 Step     71 Time=  2.95000E+00 Dt=  5.00000E-02 [y] snes_conv_reason:   11
  newton =   1 [      78] linear =   126 [      9873] cuts =  0 [   0]
  --> max chng: dpmx=   3.7717E-01 dtmpmx=   3.9623E-02

== TH FLOW =====================================================================
 Step     72 Time=  3.00000E+00 Dt=  5.00000E-02 [y] snes_conv_reason:   11
  newton =   1 [      79] linear =   133 [     10006] cuts =  0 [   0]
  --> max chng: dpmx=   3.1935E-01 dtmpmx=   3.5919E-02

== TH FLOW =====================================================================
 Step     73 Time=  3.05000E+00 Dt=  5.00000E-02 [y] snes_conv_reason:   11
  newton =   1 [      80] linear =   134 [     10140] cuts =  0 [   0]
  --> max chng: dpmx=   2.6723E-01 dtmpmx=   3.2051E-02

== TH FLOW =====================================================================
 Step     74 Time=  3.10000E+00 Dt=  5.00000E-02 [y] snes_conv_reason:   11
  newton =   1 [      81] linear =   135 [     10275] cuts =  0 [   0]
  --> max chng: dpmx=   2.2088E-01 dtmpmx=   2.8164E-02

== TH FLOW =====================================================================
 Step     75 Time=  3.15000E+00 Dt=  5.00000E-02 [y] snes_conv_reason:   11
  newton =   1 [      82] linear =   131 [     10406] cuts =  0 [   0]
  --> max chng: dpmx=   1.8039E-01 dtmpmx=   2.4382E-02

== TH FLOW =====================================================================
 Step     76 Time=  3.20000E+00 Dt=  5.00000E-02 [y] snes_conv_reason:   11
  newton =   1 [      83] linear =   136 [     10542] cuts =  0 [   0]
  --> max chng: dpmx=   1.4550E-01 dtmpmx=   2.0804E-02

== TH FLOW =====================================================================
 Step     77 Time=  3.25000E+00 Dt=  5.00000E-02 [y] snes_conv_reason:   11
  newton =   1 [      84] linear =   136 [     10678] cuts =  0 [   0]
  --> max chng: dpmx=   1.1605E-01 dtmpmx=   1.7502E-02

== TH FLOW =====================================================================
 Step     78 Time=  3.30000E+00 Dt=  5.00000E-02 [y] snes_conv_reason:   11
  newton =   1 [      85] linear =   135 [     10813] cuts =  0 [   0]
  --> max chng: dpmx=   9.1458E-02 dtmpmx=   1.4523E-02

== TH FLOW =====================================================================
 Step     79 Time=  3.35000E+00 Dt=  5.00000E-02 [y] snes_conv_reason:   11
  newton =   1 [      86] linear =   134 [     10947] cuts =  0 [   0]
  --> max chng: dpmx=   7.1234E-02 dtmpmx=   1.1890E-02

== TH FLOW =====================================================================
 Step     80 Time=  3.40000E+00 Dt=  5.00000E-02 [y] snes_conv_reason:   11
  newton =   1 [      87] linear =   136 [     11083] cuts =  0 [   0]
  --> max chng: dpmx=   5.4832E-02 dtmpmx=   9.6077E-03

== TH FLOW =====================================================================
 Step     81 Time=  3.45000E+00 Dt=  5.00000E-02 [y] snes_conv_reason:   11
  newton =   1 [      88] linear =   136 [     11219] cuts =  0 [   0]
  --> max chng: dpmx=   4.1732E-02 dtmpmx=   7.6640E-03

== TH FLOW =====================================================================
 Step     82 Time=  3.50000E+00 Dt=  5.00000E-02 [y] snes_conv_reason:   11
  newton =   1 [      89] linear =   137 [     11356] cuts =  0 [   0]
  --> max chng: dpmx=   3.1376E-02 dtmpmx=   6.0365E-03

== TH FLOW =====================================================================
 Step     83 Time=  3.55000E+00 Dt=  5.00000E-02 [y] snes_conv_reason:   11
  newton =   1 [      90] linear =   136 [     11492] cuts =  0 [   0]
  --> max chng: dpmx=   2.3310E-02 dtmpmx=   4.6954E-03

== TH FLOW =====================================================================
 Step     84 Time=  3.60000E+00 Dt=  5.00000E-02 [y] snes_conv_reason:   11
  newton =   1 [      91] linear =   139 [     11631] cuts =  0 [   0]
  --> max chng: dpmx=   1.7107E-02 dtmpmx=   3.6069E-03

== TH FLOW =====================================================================
 Step     85 Time=  3.65000E+00 Dt=  5.00000E-02 [y] snes_conv_reason:   11
  newton =   1 [      92] linear =   140 [     11771] cuts =  0 [   0]
  --> max chng: dpmx=   1.2393E-02 dtmpmx=   2.7364E-03

== TH FLOW =====================================================================
 Step     86 Time=  3.70000E+00 Dt=  5.00000E-02 [y] snes_conv_reason:   11
  newton =   1 [      93] linear =   141 [     11912] cuts =  0 [   0]
  --> max chng: dpmx=   8.8512E-03 dtmpmx=   2.0499E-03

== TH FLOW =====================================================================
 Step     87 Time=  3.75000E+00 Dt=  5.00000E-02 [y] snes_conv_reason:   11
  newton =   1 [      94] linear =   140 [     12052] cuts =  0 [   0]
  --> max chng: dpmx=   6.2316E-03 dtmpmx=   1.5157E-03

== TH FLOW =====================================================================
 Step     88 Time=  3.80000E+00 Dt=  5.00000E-02 [y] snes_conv_reason:   11
  newton =   1 [      95] linear =   136 [     12188] cuts =  0 [   0]
  --> max chng: dpmx=   4.3069E-03 dtmpmx=   1.1055E-03

== TH FLOW =====================================================================
 Step     89 Time=  3.85000E+00 Dt=  5.00000E-02 [y] snes_conv_reason:   11
  newton =   1 [      96] linear =   139 [     12327] cuts =  0 [   0]
  --> max chng: dpmx=   2.9191E-03 dtmpmx=   7.9439E-04

== TH FLOW =====================================================================
 Step     90 Time=  3.90000E+00 Dt=  5.00000E-02 [y] snes_conv_reason:   11
  newton =   1 [      97] linear =   139 [     12466] cuts =  0 [   0]
  --> max chng: dpmx=   1.9308E-03 dtmpmx=   5.6135E-04

== TH FLOW =====================================================================
 Step     91 Time=  3.95000E+00 Dt=  5.00000E-02 [y] snes_conv_reason:   11
  newton =   1 [      98] linear =   137 [     12603] cuts =  0 [   0]
  --> max chng: dpmx=   1.2399E-03 dtmpmx=   3.8885E-04

== TH FLOW =====================================================================
 Step     92 Time=  4.00000E+00 Dt=  5.00000E-02 [y] snes_conv_reason:   11
  newton =   1 [      99] linear =   135 [     12738] cuts =  0 [   0]
  --> max chng: dpmx=   7.6618E-04 dtmpmx=   2.6264E-04

== TH FLOW =====================================================================
 Step     93 Time=  4.05000E+00 Dt=  5.00000E-02 [y] snes_conv_reason:   11
  newton =   1 [     100] linear =   133 [     12871] cuts =  0 [   0]
  --> max chng: dpmx=   8.2423E-04 dtmpmx=   1.7134E-04

== TH FLOW =====================================================================
 Step     94 Time=  4.10000E+00 Dt=  5.00000E-02 [y] snes_conv_reason:   11
  newton =   1 [     101] linear =   133 [     13004] cuts =  0 [   0]
  --> max chng: dpmx=   9.3410E-04 dtmpmx=   1.0602E-04

== TH FLOW =====================================================================
 Step     95 Time=  4.15000E+00 Dt=  5.00000E-02 [y] snes_conv_reason:   11
  newton =   1 [     102] linear =   131 [     13135] cuts =  0 [   0]
  --> max chng: dpmx=   1.0018E-03 dtmpmx=   5.9809E-05

== TH FLOW =====================================================================
 Step     96 Time=  4.20000E+00 Dt=  5.00000E-02 [y] snes_conv_reason:   11
  newton =   1 [     103] linear =   123 [     13258] cuts =  0 [   0]
  --> max chng: dpmx=   1.0369E-03 dtmpmx=   3.9846E-05

== TH FLOW =====================================================================
 Step     97 Time=  4.25000E+00 Dt=  5.00000E-02 [y] snes_conv_reason:   11
  newton =   1 [     104] linear =   119 [     13377] cuts =  0 [   0]
  --> max chng: dpmx=   1.0481E-03 dtmpmx=   3.9444E-05

== TH FLOW =====================================================================
 Step     98 Time=  4.30000E+00 Dt=  5.00000E-02 [y] snes_conv_reason:   11
  newton =   1 [     105] linear =   127 [     13504] cuts =  0 [   0]
  --> max chng: dpmx=   1.0415E-03 dtmpmx=   3.9036E-05

== TH FLOW =====================================================================
 Step     99 Time=  4.35000E+00 Dt=  5.00000E-02 [y] snes_conv_reason:   11
  newton =   1 [     106] linear =   125 [     13629] cuts =  0 [   0]
  --> max chng: dpmx=   1.0223E-03 dtmpmx=   3.8626E-05

== TH FLOW =====================================================================
 Step    100 Time=  4.40000E+00 Dt=  5.00000E-02 [y] snes_conv_reason:   11
  newton =   1 [     107] linear =   124 [     13753] cuts =  0 [   0]
  --> max chng: dpmx=   9.9341E-04 dtmpmx=   3.8211E-05

== TH FLOW =====================================================================
 Step    101 Time=  4.45000E+00 Dt=  5.00000E-02 [y] snes_conv_reason:   11
  newton =   1 [     108] linear =   122 [     13875] cuts =  0 [   0]
  --> max chng: dpmx=   9.5835E-04 dtmpmx=   3.7793E-05

== TH FLOW =====================================================================
 Step    102 Time=  4.50000E+00 Dt=  5.00000E-02 [y] snes_conv_reason:   11
  newton =   1 [     109] linear =   116 [     13991] cuts =  0 [   0]
  --> max chng: dpmx=   9.1807E-04 dtmpmx=   3.7373E-05

== TH FLOW =====================================================================
 Step    103 Time=  4.55000E+00 Dt=  5.00000E-02 [y] snes_conv_reason:   11
  newton =   1 [     110] linear =   120 [     14111] cuts =  0 [   0]
  --> max chng: dpmx=   8.7475E-04 dtmpmx=   3.6950E-05

== TH FLOW =====================================================================
 Step    104 Time=  4.60000E+00 Dt=  5.00000E-02 [y] snes_conv_reason:   11
  newton =   1 [     111] linear =   120 [     14231] cuts =  0 [   0]
  --> max chng: dpmx=   8.2882E-04 dtmpmx=   3.6525E-05

== TH FLOW =====================================================================
 Step    105 Time=  4.65000E+00 Dt=  5.00000E-02 [y] snes_conv_reason:   11
  newton =   1 [     112] linear =   123 [     14354] cuts =  0 [   0]
  --> max chng: dpmx=   7.8147E-04 dtmpmx=   3.6099E-05

== TH FLOW =====================================================================
 Step    106 Time=  4.70000E+00 Dt=  5.00000E-02 [y] snes_conv_reason:   11
  newton =   1 [     113] linear =   124 [     14478] cuts =  0 [   0]
  --> max chng: dpmx=   7.3348E-04 dtmpmx=   3.5545E-05

== TH FLOW =====================================================================
 Step    107 Time=  4.75000E+00 Dt=  5.00000E-02 [y] snes_conv_reason:   11
  newton =   1 [     114] linear =   126 [     14604] cuts =  0 [   0]
  --> max chng: dpmx=   6.8501E-04 dtmpmx=   3.4694E-05

== TH FLOW =====================================================================
 Step    108 Time=  4.80000E+00 Dt=  5.00000E-02 [y] snes_conv_reason:   11
  newton =   1 [     115] linear =   126 [     14730] cuts =  0 [   0]
  --> max chng: dpmx=   6.3688E-04 dtmpmx=   3.3627E-05

== TH FLOW =====================================================================
 Step    109 Time=  4.85000E+00 Dt=  5.00000E-02 [y] snes_conv_reason:   11
  newton =   1 [     116] linear =   127 [     14857] cuts =  0 [   0]
  --> max chng: dpmx=   5.8908E-04 dtmpmx=   3.2414E-05

== TH FLOW =====================================================================
 Step    110 Time=  4.90000E+00 Dt=  5.00000E-02 [y] snes_conv_reason:   11
  newton =   1 [     117] linear =   125 [     14982] cuts =  0 [   0]
  --> max chng: dpmx=   5.4245E-04 dtmpmx=   3.1051E-05

== TH FLOW =====================================================================
 Step    111 Time=  4.95000E+00 Dt=  5.00000E-02 [y] snes_conv_reason:   11
  newton =   1 [     118] linear =   126 [     15108] cuts =  0 [   0]
  --> max chng: dpmx=   4.9709E-04 dtmpmx=   2.9571E-05

== TH FLOW =====================================================================
 Step    112 Time=  5.00000E+00 Dt=  5.00000E-02 [y] snes_conv_reason:   11
  newton =   1 [     119] linear =   128 [     15236] cuts =  0 [   0]
  --> max chng: dpmx=   4.5312E-04 dtmpmx=   2.8001E-05

== TH FLOW =====================================================================
 Step    113 Time=  5.05000E+00 Dt=  5.00000E-02 [y] snes_conv_reason:   11
  newton =   1 [     120] linear =   129 [     15365] cuts =  0 [   0]
  --> max chng: dpmx=   4.1119E-04 dtmpmx=   2.6364E-05

== TH FLOW =====================================================================
 Step    114 Time=  5.10000E+00 Dt=  5.00000E-02 [y] snes_conv_reason:   11
  newton =   1 [     121] linear =   128 [     15493] cuts =  0 [   0]
  --> max chng: dpmx=   3.7111E-04 dtmpmx=   2.4683E-05

== TH FLOW =====================================================================
 Step    115 Time=  5.15000E+00 Dt=  5.00000E-02 [y] snes_conv_reason:   11
  newton =   1 [     122] linear =   129 [     15622] cuts =  0 [   0]
  --> max chng: dpmx=   3.3317E-04 dtmpmx=   2.2976E-05

== TH FLOW =====================================================================
 Step    116 Time=  5.20000E+00 Dt=  5.00000E-02 [y] snes_conv_reason:   11
  newton =   1 [     123] linear =   128 [     15750] cuts =  0 [   0]
  --> max chng: dpmx=   2.9768E-04 dtmpmx=   2.1265E-05

== TH FLOW =====================================================================
 Step    117 Time=  5.25000E+00 Dt=  5.00000E-02 [y] snes_conv_reason:   11
  newton =   1 [     124] linear =   129 [     15879] cuts =  0 [   0]
  --> max chng: dpmx=   2.6441E-04 dtmpmx=   1.9566E-05

== TH FLOW =====================================================================
 Step    118 Time=  5.30000E+00 Dt=  5.00000E-02 [y] snes_conv_reason:   11
  newton =   1 [     125] linear =   129 [     16008] cuts =  0 [   0]
  --> max chng: dpmx=   2.3368E-04 dtmpmx=   1.7897E-05

== TH FLOW =====================================================================
 Step    119 Time=  5.35000E+00 Dt=  5.00000E-02 [y] snes_conv_reason:   11
  newton =   1 [     126] linear =   131 [     16139] cuts =  0 [   0]
  --> max chng: dpmx=   2.0540E-04 dtmpmx=   1.6273E-05

== TH FLOW =====================================================================
 Step    120 Time=  5.40000E+00 Dt=  5.00000E-02 [y] snes_conv_reason:   11
  newton =   1 [     127] linear =   134 [     16273] cuts =  0 [   0]
  --> max chng: dpmx=   1.7954E-04 dtmpmx=   1.4708E-05

== TH FLOW =====================================================================
 Step    121 Time=  5.45000E+00 Dt=  5.00000E-02 [y] snes_conv_reason:   11
  newton =   1 [     128] linear =   132 [     16405] cuts =  0 [   0]
  --> max chng: dpmx=   1.5602E-04 dtmpmx=   1.3212E-05

== TH FLOW =====================================================================
 Step    122 Time=  5.50000E+00 Dt=  5.00000E-02 [y] snes_conv_reason:   11
  newton =   1 [     129] linear =   133 [     16538] cuts =  0 [   0]
  --> max chng: dpmx=   1.3486E-04 dtmpmx=   1.1796E-05

== TH FLOW =====================================================================
 Step    123 Time=  5.55000E+00 Dt=  5.00000E-02 [y] snes_conv_reason:   11
  newton =   1 [     130] linear =   135 [     16673] cuts =  0 [   0]
  --> max chng: dpmx=   1.1588E-04 dtmpmx=   1.0466E-05

== TH FLOW =====================================================================
 Step    124 Time=  5.60000E+00 Dt=  5.00000E-02 [y] snes_conv_reason:   11
  newton =   1 [     131] linear =   130 [     16803] cuts =  0 [   0]
  --> max chng: dpmx=   9.8998E-05 dtmpmx=   9.2289E-06

== TH FLOW =====================================================================
 Step    125 Time=  5.65000E+00 Dt=  5.00000E-02 [y] snes_conv_reason:   11
  newton =   1 [     132] linear =   130 [     16933] cuts =  0 [   0]
  --> max chng: dpmx=   8.4057E-05 dtmpmx=   8.0868E-06

== TH FLOW =====================================================================
 Step    126 Time=  5.70000E+00 Dt=  5.00000E-02 [y] snes_conv_reason:   11
  newton =   1 [     133] linear =   132 [     17065] cuts =  0 [   0]
  --> max chng: dpmx=   7.0962E-05 dtmpmx=   7.0414E-06

== TH FLOW =====================================================================
 Step    127 Time=  5.75000E+00 Dt=  5.00000E-02 [y] snes_conv_reason:   11
  newton =   1 [     134] linear =   133 [     17198] cuts =  0 [   0]
  --> max chng: dpmx=   5.9548E-05 dtmpmx=   6.0921E-06

== TH FLOW =====================================================================
 Step    128 Time=  5.80000E+00 Dt=  5.00000E-02 [y] snes_conv_reason:   11
  newton =   1 [     135] linear =   134 [     17332] cuts =  0 [   0]
  --> max chng: dpmx=   4.9648E-05 dtmpmx=   5.2369E-06

== TH FLOW =====================================================================
 Step    129 Time=  5.85000E+00 Dt=  5.00000E-02 [y] snes_conv_reason:   11
  newton =   1 [     136] linear =   135 [     17467] cuts =  0 [   0]
  --> max chng: dpmx=   4.1138E-05 dtmpmx=   4.4727E-06

== TH FLOW =====================================================================
 Step    130 Time=  5.90000E+00 Dt=  5.00000E-02 [y] snes_conv_reason:   11
  newton =   1 [     137] linear =   132 [     17599] cuts =  0 [   0]
  --> max chng: dpmx=   3.3852E-05 dtmpmx=   3.7949E-06

== TH FLOW =====================================================================
 Step    131 Time=  5.95000E+00 Dt=  5.00000E-02 [y] snes_conv_reason:   11
  newton =   1 [     138] linear =   131 [     17730] cuts =  0 [   0]
  --> max chng: dpmx=   2.7674E-05 dtmpmx=   3.1984E-06

== TH FLOW =====================================================================
 Step    132 Time=  6.00000E+00 Dt=  5.00000E-02 [y] snes_conv_reason:   11
  newton =   1 [     139] linear =   134 [     17864] cuts =  0 [   0]
  --> max chng: dpmx=   2.2471E-05 dtmpmx=   2.6774E-06

== TH FLOW =====================================================================
 Step    133 Time=  6.05000E+00 Dt=  5.00000E-02 [y] snes_conv_reason:   11
  newton =   1 [     140] linear =   134 [     17998] cuts =  0 [   0]
  --> max chng: dpmx=   1.8097E-05 dtmpmx=   2.2258E-06

== TH FLOW =====================================================================
 Step    134 Time=  6.10000E+00 Dt=  5.00000E-02 [y] snes_conv_reason:   11
  newton =   1 [     141] linear =   135 [     18133] cuts =  0 [   0]
  --> max chng: dpmx=   1.4470E-05 dtmpmx=   1.8372E-06

== TH FLOW =====================================================================
 Step    135 Time=  6.15000E+00 Dt=  5.00000E-02 [y] snes_conv_reason:   11
  newton =   1 [     142] linear =   136 [     18269] cuts =  0 [   0]
  --> max chng: dpmx=   1.1470E-05 dtmpmx=   1.5053E-06

== TH FLOW =====================================================================
 Step    136 Time=  6.20000E+00 Dt=  5.00000E-02 [y] snes_conv_reason:   11
  newton =   1 [     143] linear =   136 [     18405] cuts =  0 [   0]
  --> max chng: dpmx=   9.0105E-06 dtmpmx=   1.2240E-06

== TH FLOW =====================================================================
 Step    137 Time=  6.25000E+00 Dt=  5.00000E-02 [y] snes_conv_reason:   11
  newton =   1 [     144] linear =   136 [     18541] cuts =  0 [   0]
  --> max chng: dpmx=   7.0101E-06 dtmpmx=   9.8717E-07

== TH FLOW =====================================================================
 Step    138 Time=  6.30000E+00 Dt=  5.00000E-02 [y] snes_conv_reason:   11
  newton =   1 [     145] linear =   135 [     18676] cuts =  0 [   0]
  --> max chng: dpmx=   5.3904E-06 dtmpmx=   7.8922E-07

== TH FLOW =====================================================================
 Step    139 Time=  6.35000E+00 Dt=  5.00000E-02 [y] snes_conv_reason:   11
  newton =   1 [     146] linear =   139 [     18815] cuts =  0 [   0]
  --> max chng: dpmx=   4.0968E-06 dtmpmx=   6.2520E-07

== TH FLOW =====================================================================
 Step    140 Time=  6.40000E+00 Dt=  5.00000E-02 [y] snes_conv_reason:   11
  newton =   1 [     147] linear =   142 [     18957] cuts =  0 [   0]
  --> max chng: dpmx=   3.0672E-06 dtmpmx=   4.9009E-07

== TH FLOW =====================================================================
 Step    141 Time=  6.45000E+00 Dt=  5.00000E-02 [y] snes_conv_reason:   11
  newton =   1 [     148] linear =   142 [     19099] cuts =  0 [   0]
  --> max chng: dpmx=   2.2582E-06 dtmpmx=   3.7970E-07

== TH FLOW =====================================================================
 Step    142 Time=  6.50000E+00 Dt=  5.00000E-02 [y] snes_conv_reason:   11
  newton =   1 [     149] linear =   134 [     19233] cuts =  0 [   0]
  --> max chng: dpmx=   1.6298E-06 dtmpmx=   2.9017E-07

== TH FLOW =====================================================================
 Step    143 Time=  6.55000E+00 Dt=  5.00000E-02 [y] snes_conv_reason:   11
  newton =   1 [     150] linear =   138 [     19371] cuts =  0 [   0]
  --> max chng: dpmx=   1.1481E-06 dtmpmx=   2.1819E-07

== TH FLOW =====================================================================
 Step    144 Time=  6.60000E+00 Dt=  5.00000E-02 [y] snes_conv_reason:   11
  newton =   1 [     151] linear =   137 [     19508] cuts =  0 [   0]
  --> max chng: dpmx=   7.8499E-07 dtmpmx=   1.6075E-07

== TH FLOW =====================================================================
 Step    145 Time=  6.65000E+00 Dt=  5.00000E-02 [y] snes_conv_reason:   11
  newton =   1 [     152] linear =   142 [     19650] cuts =  0 [   0]
  --> max chng: dpmx=   5.1653E-07 dtmpmx=   1.1529E-07

== TH FLOW =====================================================================
 Step    146 Time=  6.70000E+00 Dt=  5.00000E-02 [y] snes_conv_reason:   11
  newton =   1 [     153] linear =   136 [     19786] cuts =  0 [   0]
  --> max chng: dpmx=   3.6240E-07 dtmpmx=   7.9737E-08

== TH FLOW =====================================================================
 Step    147 Time=  6.75000E+00 Dt=  5.00000E-02 [y] snes_conv_reason:   11
  newton =   1 [     154] linear =   134 [     19920] cuts =  0 [   0]
  --> max chng: dpmx=   4.3761E-07 dtmpmx=   5.2118E-08

== TH FLOW =====================================================================
 Step    148 Time=  6.80000E+00 Dt=  5.00000E-02 [y] snes_conv_reason:   11
  newton =   1 [     155] linear =   132 [     20052] cuts =  0 [   0]
  --> max chng: dpmx=   4.8731E-07 dtmpmx=   3.0985E-08

== TH FLOW =====================================================================
 Step    149 Time=  6.85000E+00 Dt=  5.00000E-02 [y] snes_conv_reason:   11
  newton =   1 [     156] linear =   123 [     20175] cuts =  0 [   0]
  --> max chng: dpmx=   5.1560E-07 dtmpmx=   2.4178E-08

== TH FLOW =====================================================================
 Step    150 Time=  6.90000E+00 Dt=  5.00000E-02 [y] snes_conv_reason:   11
  newton =   1 [     157] linear =   130 [     20305] cuts =  0 [   0]
  --> max chng: dpmx=   5.2666E-07 dtmpmx=   2.3718E-08

== TH FLOW =====================================================================
 Step    151 Time=  6.95000E+00 Dt=  5.00000E-02 [y] snes_conv_reason:   11
  newton =   1 [     158] linear =   121 [     20426] cuts =  0 [   0]
  --> max chng: dpmx=   5.2468E-07 dtmpmx=   2.3281E-08

== TH FLOW =====================================================================
 Step    152 Time=  7.00000E+00 Dt=  5.00000E-02 [y] snes_conv_reason:   11
  newton =   1 [     159] linear =   129 [     20555] cuts =  0 [   0]
  --> max chng: dpmx=   5.1211E-07 dtmpmx=   2.2838E-08

== TH FLOW =====================================================================
 Step    153 Time=  7.05000E+00 Dt=  5.00000E-02 [y] snes_conv_reason:   11
  newton =   1 [     160] linear =   114 [     20669] cuts =  0 [   0]
  --> max chng: dpmx=   4.9244E-07 dtmpmx=   2.2397E-08

== TH FLOW =====================================================================
 Step    154 Time=  7.10000E+00 Dt=  5.00000E-02 [y] snes_conv_reason:   11
  newton =   1 [     161] linear =   129 [     20798] cuts =  0 [   0]
  --> max chng: dpmx=   4.6799E-07 dtmpmx=   2.2010E-08

== TH FLOW =====================================================================
 Step    155 Time=  7.15000E+00 Dt=  5.00000E-02 [y] snes_conv_reason:   11
  newton =   1 [     162] linear =   118 [     20916] cuts =  0 [   0]
  --> max chng: dpmx=   4.4005E-07 dtmpmx=   2.1627E-08

== TH FLOW =====================================================================
 Step    156 Time=  7.20000E+00 Dt=  5.00000E-02 [y] snes_conv_reason:   11
  newton =   1 [     163] linear =   125 [     21041] cuts =  0 [   0]
  --> max chng: dpmx=   4.1025E-07 dtmpmx=   2.1199E-08

== TH FLOW =====================================================================
 Step    157 Time=  7.25000E+00 Dt=  5.00000E-02 [y] snes_conv_reason:   11
  newton =   1 [     164] linear =   127 [     21168] cuts =  0 [   0]
  --> max chng: dpmx=   3.7986E-07 dtmpmx=   2.0792E-08

== TH FLOW =====================================================================
 Step    158 Time=  7.30000E+00 Dt=  5.00000E-02 [y] snes_conv_reason:   11
  newton =   1 [     165] linear =   124 [     21292] cuts =  0 [   0]
  --> max chng: dpmx=   3.4925E-07 dtmpmx=   2.0290E-08

== TH FLOW =====================================================================
 Step    159 Time=  7.35000E+00 Dt=  5.00000E-02 [y] snes_conv_reason:   11
  newton =   1 [     166] linear =   128 [     21420] cuts =  0 [   0]
  --> max chng: dpmx=   3.1944E-07 dtmpmx=   1.9441E-08

== TH FLOW =====================================================================
 Step    160 Time=  7.40000E+00 Dt=  5.00000E-02 [y] snes_conv_reason:   11
  newton =   1 [     167] linear =   118 [     21538] cuts =  0 [   0]
  --> max chng: dpmx=   2.9057E-07 dtmpmx=   1.8533E-08

== TH FLOW =====================================================================
 Step    161 Time=  7.45000E+00 Dt=  5.00000E-02 [y] snes_conv_reason:   11
  newton =   1 [     168] linear =   130 [     21668] cuts =  0 [   0]
  --> max chng: dpmx=   2.6298E-07 dtmpmx=   1.7447E-08

== TH FLOW =====================================================================
 Step    162 Time=  7.50000E+00 Dt=  5.00000E-02 [y] snes_conv_reason:   11
  newton =   1 [     169] linear =   130 [     21798] cuts =  0 [   0]
  --> max chng: dpmx=   2.3691E-07 dtmpmx=   1.6243E-08

== TH FLOW =====================================================================
 Step    163 Time=  7.55000E+00 Dt=  5.00000E-02 [y] snes_conv_reason:   11
  newton =   1 [     170] linear =   129 [     21927] cuts =  0 [   0]
  --> max chng: dpmx=   2.1269E-07 dtmpmx=   1.4997E-08

== TH FLOW =====================================================================
 Step    164 Time=  7.60000E+00 Dt=  5.00000E-02 [y] snes_conv_reason:   11
  newton =   1 [     171] linear =   130 [     22057] cuts =  0 [   0]
  --> max chng: dpmx=   1.9011E-07 dtmpmx=   1.3848E-08

== TH FLOW =====================================================================
 Step    165 Time=  7.65000E+00 Dt=  5.00000E-02 [y] snes_conv_reason:   11
  newton =   1 [     172] linear =   129 [     22186] cuts =  0 [   0]
  --> max chng: dpmx=   1.6915E-07 dtmpmx=   1.2654E-08

== TH FLOW =====================================================================
 Step    166 Time=  7.70000E+00 Dt=  5.00000E-02 [y] snes_conv_reason:   11
  newton =   1 [     173] linear =   129 [     22315] cuts =  0 [   0]
  --> max chng: dpmx=   1.4983E-07 dtmpmx=   1.1456E-08

== TH FLOW =====================================================================
 Step    167 Time=  7.75000E+00 Dt=  5.00000E-02 [y] snes_conv_reason:   11
  newton =   1 [     174] linear =   133 [     22448] cuts =  0 [   0]
  --> max chng: dpmx=   1.3236E-07 dtmpmx=   1.0374E-08

== TH FLOW =====================================================================
 Step    168 Time=  7.80000E+00 Dt=  5.00000E-02 [y] snes_conv_reason:   11
  newton =   1 [     175] linear =   129 [     22577] cuts =  0 [   0]
  --> max chng: dpmx=   1.1653E-07 dtmpmx=   9.3574E-09

== TH FLOW =====================================================================
 Step    169 Time=  7.85000E+00 Dt=  5.00000E-02 [y] snes_conv_reason:   11
  newton =   1 [     176] linear =   132 [     22709] cuts =  0 [   0]
  --> max chng: dpmx=   1.0198E-07 dtmpmx=   8.3882E-09

== TH FLOW =====================================================================
 Step    170 Time=  7.90000E+00 Dt=  5.00000E-02 [y] snes_conv_reason:   11
  newton =   1 [     177] linear =   131 [     22840] cuts =  0 [   0]
  --> max chng: dpmx=   8.9058E-08 dtmpmx=   7.4798E-09

== TH FLOW =====================================================================
 Step    171 Time=  7.95000E+00 Dt=  5.00000E-02 [y] snes_conv_reason:   11
  newton =   1 [     178] linear =   134 [     22974] cuts =  0 [   0]
  --> max chng: dpmx=   7.7416E-08 dtmpmx=   6.6847E-09

== TH FLOW =====================================================================
 Step    172 Time=  8.00000E+00 Dt=  5.00000E-02 [y] snes_conv_reason:   11
  newton =   1 [     179] linear =   132 [     23106] cuts =  0 [   0]
  --> max chng: dpmx=   6.7172E-08 dtmpmx=   5.8689E-09

== TH FLOW =====================================================================
 Step    173 Time=  8.05000E+00 Dt=  5.00000E-02 [y] snes_conv_reason:   11
  newton =   1 [     180] linear =   132 [     23238] cuts =  0 [   0]
  --> max chng: dpmx=   5.7975E-08 dtmpmx=   5.2184E-09

== TH FLOW =====================================================================
 Step    174 Time=  8.10000E+00 Dt=  5.00000E-02 [y] snes_conv_reason:   11
  newton =   1 [     181] linear =   128 [     23366] cuts =  0 [   0]
  --> max chng: dpmx=   4.9942E-08 dtmpmx=   4.5749E-09

== TH FLOW =====================================================================
 Step    175 Time=  8.15000E+00 Dt=  5.00000E-02 [y] snes_conv_reason:   11
  newton =   1 [     182] linear =   134 [     23500] cuts =  0 [   0]
  --> max chng: dpmx=   4.2608E-08 dtmpmx=   3.9593E-09

== TH FLOW =====================================================================
 Step    176 Time=  8.20000E+00 Dt=  5.00000E-02 [y] snes_conv_reason:   11
  newton =   1 [     183] linear =   134 [     23634] cuts =  0 [   0]
  --> max chng: dpmx=   3.6322E-08 dtmpmx=   3.5103E-09

== TH FLOW =====================================================================
 Step    177 Time=  8.25000E+00 Dt=  5.00000E-02 [y] snes_conv_reason:   11
  newton =   1 [     184] linear =   133 [     23767] cuts =  0 [   0]
  --> max chng: dpmx=   3.0734E-08 dtmpmx=   2.9972E-09

== TH FLOW =====================================================================
 Step    178 Time=  8.30000E+00 Dt=  5.00000E-02 [y] snes_conv_reason:   11
  newton =   1 [     185] linear =   134 [     23901] cuts =  0 [   0]
  --> max chng: dpmx=   2.6077E-08 dtmpmx=   2.5904E-09

== TH FLOW =====================================================================
 Step    179 Time=  8.35000E+00 Dt=  5.00000E-02 [y] snes_conv_reason:   11
  newton =   1 [     186] linear =   133 [     24034] cuts =  0 [   0]
  --> max chng: dpmx=   2.1886E-08 dtmpmx=   2.2517E-09

== TH FLOW =====================================================================
 Step    180 Time=  8.40000E+00 Dt=  5.00000E-02 [y] snes_conv_reason:   11
  newton =   1 [     187] linear =   136 [     24170] cuts =  0 [   0]
  --> max chng: dpmx=   1.8394E-08 dtmpmx=   1.8900E-09

== TH FLOW =====================================================================
 Step    181 Time=  8.45000E+00 Dt=  5.00000E-02 [y] snes_conv_reason:   11
  newton =   1 [     188] linear =   135 [     24305] cuts =  0 [   0]
  --> max chng: dpmx=   1.5250E-08 dtmpmx=   1.6268E-09

== TH FLOW =====================================================================
 Step    182 Time=  8.50000E+00 Dt=  5.00000E-02 [y] snes_conv_reason:   11
  newton =   1 [     189] linear =   136 [     24441] cuts =  0 [   0]
  --> max chng: dpmx=   1.2689E-08 dtmpmx=   1.4166E-09

== TH FLOW =====================================================================
 Step    183 Time=  8.55000E+00 Dt=  5.00000E-02 [y] snes_conv_reason:   11
  newton =   1 [     190] linear =   136 [     24577] cuts =  0 [   0]
  --> max chng: dpmx=   1.0477E-08 dtmpmx=   1.1535E-09

== TH FLOW =====================================================================
 Step    184 Time=  8.60000E+00 Dt=  5.00000E-02 [y] snes_conv_reason:   11
  newton =   1 [     191] linear =   135 [     24712] cuts =  0 [   0]
  --> max chng: dpmx=   8.6147E-09 dtmpmx=   9.8963E-10

== TH FLOW =====================================================================
 Step    185 Time=  8.65000E+00 Dt=  5.00000E-02 [y] snes_conv_reason:   11
  newton =   1 [     192] linear =   135 [     24847] cuts =  0 [   0]
  --> max chng: dpmx=   6.9849E-09 dtmpmx=   8.2066E-10

== TH FLOW =====================================================================
 Step    186 Time=  8.70000E+00 Dt=  5.00000E-02 [y] snes_conv_reason:   11
  newton =   1 [     193] linear =   135 [     24982] cuts =  0 [   0]
  --> max chng: dpmx=   5.7044E-09 dtmpmx=   6.9233E-10

== TH FLOW =====================================================================
 Step    187 Time=  8.75000E+00 Dt=  5.00000E-02 [y] snes_conv_reason:   11
  newton =   1 [     194] linear =   136 [     25118] cuts =  0 [   0]
  --> max chng: dpmx=   4.5402E-09 dtmpmx=   5.7132E-10

== TH FLOW =====================================================================
 Step    188 Time=  8.80000E+00 Dt=  5.00000E-02 [y] snes_conv_reason:   11
  newton =   1 [     195] linear =   137 [     25255] cuts =  0 [   0]
  --> max chng: dpmx=   3.7253E-09 dtmpmx=   4.8642E-10

== TH FLOW =====================================================================
 Step    189 Time=  8.85000E+00 Dt=  5.00000E-02 [y] snes_conv_reason:   11
  newton =   1 [     196] linear =   128 [     25383] cuts =  0 [   0]
  --> max chng: dpmx=   3.0268E-09 dtmpmx=   4.0817E-10

== TH FLOW =====================================================================
 Step    190 Time=  8.90000E+00 Dt=  5.00000E-02 [y] snes_conv_reason:   11
  newton =   1 [     197] linear =   138 [     25521] cuts =  0 [   0]
  --> max chng: dpmx=   2.3283E-09 dtmpmx=   3.0005E-10

== TH FLOW =====================================================================
 Step    191 Time=  8.95000E+00 Dt=  5.00000E-02 [y] snes_conv_reason:   11
  newton =   1 [     198] linear =   139 [     25660] cuts =  0 [   0]
  --> max chng: dpmx=   1.8626E-09 dtmpmx=   2.5343E-10

== TH FLOW =====================================================================
 Step    192 Time=  9.00000E+00 Dt=  5.00000E-02 [y] snes_conv_reason:   11
  newton =   1 [     199] linear =   132 [     25792] cuts =  0 [   0]
  --> max chng: dpmx=   1.2806E-09 dtmpmx=   2.3154E-10

== TH FLOW =====================================================================
 Step    193 Time=  9.05000E+00 Dt=  5.00000E-02 [y] snes_conv_reason:   11
  newton =   1 [     200] linear =   134 [     25926] cuts =  0 [   0]
  --> max chng: dpmx=   1.0477E-09 dtmpmx=   1.6430E-10

== TH FLOW =====================================================================
 Step    194 Time=  9.10000E+00 Dt=  5.00000E-02 [y] snes_conv_reason:   11
  newton =   1 [     201] linear =   132 [     26058] cuts =  0 [   0]
  --> max chng: dpmx=   8.1491E-10 dtmpmx=   1.2172E-10

== TH FLOW =====================================================================
 Step    195 Time=  9.15000E+00 Dt=  5.00000E-02 [y] snes_conv_reason:   11
  newton =   1 [     202] linear =   123 [     26181] cuts =  0 [   0]
  --> max chng: dpmx=   5.8208E-10 dtmpmx=   1.1753E-10

== TH FLOW =====================================================================
 Step    196 Time=  9.20000E+00 Dt=  5.00000E-02 [y] snes_conv_reason:   11
  newton =   1 [     203] linear =   133 [     26314] cuts =  0 [   0]
  --> max chng: dpmx=   4.6566E-10 dtmpmx=   9.5463E-11

== TH FLOW =====================================================================
 Step    197 Time=  9.25000E+00 Dt=  5.00000E-02 [y] snes_conv_reason:   11
  newton =   1 [     204] linear =   122 [     26436] cuts =  0 [   0]
  --> max chng: dpmx=   3.4925E-10 dtmpmx=   9.2909E-11

== TH FLOW =====================================================================
 Step    198 Time=  9.30000E+00 Dt=  5.00000E-02 [y] snes_conv_reason:   11
  newton =   1 [     205] linear =   121 [     26557] cuts =  0 [   0]
  --> max chng: dpmx=   3.4925E-10 dtmpmx=   8.9340E-11

== TH FLOW =====================================================================
 Step    199 Time=  9.35000E+00 Dt=  5.00000E-02 [y] snes_conv_reason:   11
  newton =   1 [     206] linear =   134 [     26691] cuts =  0 [   0]
  --> max chng: dpmx=   3.4925E-10 dtmpmx=   8.6827E-11

== TH FLOW =====================================================================
 Step    200 Time=  9.40000E+00 Dt=  5.00000E-02 [y] snes_conv_reason:   11
  newton =   1 [     207] linear =   133 [     26824] cuts =  0 [   0]
  --> max chng: dpmx=   3.4925E-10 dtmpmx=   8.7939E-11

== TH FLOW =====================================================================
 Step    201 Time=  9.45000E+00 Dt=  5.00000E-02 [y] snes_conv_reason:   11
  newton =   1 [     208] linear =   111 [     26935] cuts =  0 [   0]
  --> max chng: dpmx=   4.6566E-10 dtmpmx=   9.7007E-11

== TH FLOW =====================================================================
 Step    202 Time=  9.50000E+00 Dt=  5.00000E-02 [y] snes_conv_reason:   11
  newton =   1 [     209] linear =   121 [     27056] cuts =  0 [   0]
  --> max chng: dpmx=   4.6566E-10 dtmpmx=   8.2041E-11

== TH FLOW =====================================================================
 Step    203 Time=  9.55000E+00 Dt=  5.00000E-02 [y] snes_conv_reason:   11
  newton =   1 [     210] linear =   122 [     27178] cuts =  0 [   0]
  --> max chng: dpmx=   4.6566E-10 dtmpmx=   9.8655E-11

== TH FLOW =====================================================================
 Step    204 Time=  9.60000E+00 Dt=  5.00000E-02 [y] snes_conv_reason:   11
  newton =   1 [     211] linear =   118 [     27296] cuts =  0 [   0]
  --> max chng: dpmx=   3.4925E-10 dtmpmx=   1.0428E-10

== TH FLOW =====================================================================
 Step    205 Time=  9.65000E+00 Dt=  5.00000E-02 [y] snes_conv_reason:   11
  newton =   1 [     212] linear =   113 [     27409] cuts =  0 [   0]
  --> max chng: dpmx=   4.6566E-10 dtmpmx=   1.0501E-10

== TH FLOW =====================================================================
 Step    206 Time=  9.70000E+00 Dt=  5.00000E-02 [y] snes_conv_reason:   11
  newton =   1 [     213] linear =   111 [     27520] cuts =  0 [   0]
  --> max chng: dpmx=   3.4925E-10 dtmpmx=   8.9216E-11

== TH FLOW =====================================================================
 Step    207 Time=  9.75000E+00 Dt=  5.00000E-02 [y] snes_conv_reason:   11
  newton =   1 [     214] linear =   124 [     27644] cuts =  0 [   0]
  --> max chng: dpmx=   3.4925E-10 dtmpmx=   9.4225E-11

== TH FLOW =====================================================================
 Step    208 Time=  9.80000E+00 Dt=  5.00000E-02 [y] snes_conv_reason:   11
  newton =   1 [     215] linear =   130 [     27774] cuts =  0 [   0]
  --> max chng: dpmx=   3.4925E-10 dtmpmx=   8.7370E-11

== TH FLOW =====================================================================
 Step    209 Time=  9.85000E+00 Dt=  5.00000E-02 [y] snes_conv_reason:   11
  newton =   1 [     216] linear =   109 [     27883] cuts =  0 [   0]
  --> max chng: dpmx=   3.4925E-10 dtmpmx=   8.6841E-11

== TH FLOW =====================================================================
 Step    210 Time=  9.90000E+00 Dt=  5.00000E-02 [y] snes_conv_reason:   11
  newton =   1 [     217] linear =   129 [     28012] cuts =  0 [   0]
  --> max chng: dpmx=   3.4925E-10 dtmpmx=   9.6270E-11

== TH FLOW =====================================================================
 Step    211 Time=  9.95000E+00 Dt=  5.00000E-02 [y] snes_conv_reason:   11
  newton =   1 [     218] linear =   114 [     28126] cuts =  0 [   0]
  --> max chng: dpmx=   3.4925E-10 dtmpmx=   9.4435E-11

== TH FLOW =====================================================================
 Step    212 Time=  1.00000E+01 Dt=  5.00000E-02 [y] snes_conv_reason:   11
  newton =   1 [     219] linear =   133 [     28259] cuts =  0 [   0]
  --> max chng: dpmx=   3.4925E-10 dtmpmx=   9.0891E-11

== TH FLOW =====================================================================
 Step    213 Time=  1.00500E+01 Dt=  5.00000E-02 [y] snes_conv_reason:   11
  newton =   1 [     220] linear =   118 [     28377] cuts =  0 [   0]
  --> max chng: dpmx=   2.3283E-10 dtmpmx=   1.0393E-10

== TH FLOW =====================================================================
 Step    214 Time=  1.01000E+01 Dt=  5.00000E-02 [y] snes_conv_reason:   11
  newton =   1 [     221] linear =   114 [     28491] cuts =  0 [   0]
  --> max chng: dpmx=   3.4925E-10 dtmpmx=   9.3619E-11

== TH FLOW =====================================================================
 Step    215 Time=  1.01500E+01 Dt=  5.00000E-02 [y] snes_conv_reason:   11
  newton =   1 [     222] linear =   136 [     28627] cuts =  0 [   0]
  --> max chng: dpmx=   2.3283E-10 dtmpmx=   8.6912E-11

== TH FLOW =====================================================================
 Step    216 Time=  1.02000E+01 Dt=  5.00000E-02 [y] snes_conv_reason:   11
  newton =   1 [     223] linear =   123 [     28750] cuts =  0 [   0]
  --> max chng: dpmx=   3.4925E-10 dtmpmx=   8.9559E-11

== TH FLOW =====================================================================
 Step    217 Time=  1.02500E+01 Dt=  5.00000E-02 [y] snes_conv_reason:   11
  newton =   1 [     224] linear =   125 [     28875] cuts =  0 [   0]
  --> max chng: dpmx=   2.3283E-10 dtmpmx=   8.9498E-11

== TH FLOW =====================================================================
 Step    218 Time=  1.03000E+01 Dt=  5.00000E-02 [y] snes_conv_reason:   11
  newton =   1 [     225] linear =   115 [     28990] cuts =  0 [   0]
  --> max chng: dpmx=   2.3283E-10 dtmpmx=   9.4644E-11

== TH FLOW =====================================================================
 Step    219 Time=  1.03500E+01 Dt=  5.00000E-02 [y] snes_conv_reason:   11
  newton =   1 [     226] linear =   128 [     29118] cuts =  0 [   0]
  --> max chng: dpmx=   2.3283E-10 dtmpmx=   9.3856E-11

== TH FLOW =====================================================================
 Step    220 Time=  1.04000E+01 Dt=  5.00000E-02 [y] snes_conv_reason:   11
  newton =   1 [     227] linear =   127 [     29245] cuts =  0 [   0]
  --> max chng: dpmx=   2.3283E-10 dtmpmx=   9.6350E-11

== TH FLOW =====================================================================
 Step    221 Time=  1.04500E+01 Dt=  5.00000E-02 [y] snes_conv_reason:   11
  newton =   1 [     228] linear =   107 [     29352] cuts =  0 [   0]
  --> max chng: dpmx=   2.3283E-10 dtmpmx=   9.4499E-11

== TH FLOW =====================================================================
 Step    222 Time=  1.05000E+01 Dt=  5.00000E-02 [y] snes_conv_reason:   11
  newton =   1 [     229] linear =   108 [     29460] cuts =  0 [   0]
  --> max chng: dpmx=   2.3283E-10 dtmpmx=   9.8163E-11

== TH FLOW =====================================================================
 Step    223 Time=  1.05500E+01 Dt=  5.00000E-02 [y] snes_conv_reason:   11
  newton =   1 [     230] linear =   120 [     29580] cuts =  0 [   0]
  --> max chng: dpmx=   2.3283E-10 dtmpmx=   9.5900E-11

== TH FLOW =====================================================================
 Step    224 Time=  1.06000E+01 Dt=  5.00000E-02 [y] snes_conv_reason:   11
  newton =   1 [     231] linear =   129 [     29709] cuts =  0 [   0]
  --> max chng: dpmx=   2.3283E-10 dtmpmx=   9.3548E-11

== TH FLOW =====================================================================
 Step    225 Time=  1.06500E+01 Dt=  5.00000E-02 [y] snes_conv_reason:   11
  newton =   1 [     232] linear =   115 [     29824] cuts =  0 [   0]
  --> max chng: dpmx=   2.3283E-10 dtmpmx=   9.3412E-11

== TH FLOW =====================================================================
 Step    226 Time=  1.07000E+01 Dt=  5.00000E-02 [y] snes_conv_reason:   11
  newton =   1 [     233] linear =   124 [     29948] cuts =  0 [   0]
  --> max chng: dpmx=   2.3283E-10 dtmpmx=   9.4616E-11

== TH FLOW =====================================================================
 Step    227 Time=  1.07500E+01 Dt=  5.00000E-02 [y] snes_conv_reason:   11
  newton =   1 [     234] linear =   110 [     30058] cuts =  0 [   0]
  --> max chng: dpmx=   2.3283E-10 dtmpmx=   1.0132E-10

== TH FLOW =====================================================================
 Step    228 Time=  1.08000E+01 Dt=  5.00000E-02 [y] snes_conv_reason:   11
  newton =   1 [     235] linear =   107 [     30165] cuts =  0 [   0]
  --> max chng: dpmx=   2.3283E-10 dtmpmx=   9.8993E-11

== TH FLOW =====================================================================
 Step    229 Time=  1.08500E+01 Dt=  5.00000E-02 [y] snes_conv_reason:   11
  newton =   1 [     236] linear =   109 [     30274] cuts =  0 [   0]
  --> max chng: dpmx=   2.3283E-10 dtmpmx=   8.3103E-11

== TH FLOW =====================================================================
 Step    230 Time=  1.09000E+01 Dt=  5.00000E-02 [y] snes_conv_reason:   11
  newton =   1 [     237] linear =   112 [     30386] cuts =  0 [   0]
  --> max chng: dpmx=   2.3283E-10 dtmpmx=   9.1889E-11

== TH FLOW =====================================================================
 Step    231 Time=  1.09500E+01 Dt=  5.00000E-02 [y] snes_conv_reason:   11
  newton =   1 [     238] linear =   117 [     30503] cuts =  0 [   0]
  --> max chng: dpmx=   2.3283E-10 dtmpmx=   9.0743E-11

== TH FLOW =====================================================================
 Step    232 Time=  1.10000E+01 Dt=  5.00000E-02 [y] snes_conv_reason:   11
  newton =   1 [     239] linear =   103 [     30606] cuts =  0 [   0]
  --> max chng: dpmx=   2.3283E-10 dtmpmx=   8.1412E-11

== TH FLOW =====================================================================
 Step    233 Time=  1.10500E+01 Dt=  5.00000E-02 [y] snes_conv_reason:   11
  newton =   1 [     240] linear =   107 [     30713] cuts =  0 [   0]
  --> max chng: dpmx=   2.3283E-10 dtmpmx=   9.8996E-11

== TH FLOW =====================================================================
 Step    234 Time=  1.11000E+01 Dt=  5.00000E-02 [y] snes_conv_reason:   11
  newton =   1 [     241] linear =   102 [     30815] cuts =  0 [   0]
  --> max chng: dpmx=   2.3283E-10 dtmpmx=   8.8255E-11

== TH FLOW =====================================================================
 Step    235 Time=  1.11500E+01 Dt=  5.00000E-02 [y] snes_conv_reason:   11
  newton =   1 [     242] linear =   113 [     30928] cuts =  0 [   0]
  --> max chng: dpmx=   2.3283E-10 dtmpmx=   9.3245E-11

== TH FLOW =====================================================================
 Step    236 Time=  1.12000E+01 Dt=  5.00000E-02 [y] snes_conv_reason:   11
  newton =   1 [     243] linear =   106 [     31034] cuts =  0 [   0]
  --> max chng: dpmx=   2.3283E-10 dtmpmx=   9.6751E-11

== TH FLOW =====================================================================
 Step    237 Time=  1.12500E+01 Dt=  5.00000E-02 [y] snes_conv_reason:   11
  newton =   1 [     244] linear =   114 [     31148] cuts =  0 [   0]
  --> max chng: dpmx=   2.3283E-10 dtmpmx=   9.2220E-11

== TH FLOW =====================================================================
 Step    238 Time=  1.13000E+01 Dt=  5.00000E-02 [y] snes_conv_reason:   11
  newton =   1 [     245] linear =    81 [     31229] cuts =  0 [   0]
  --> max chng: dpmx=   2.3283E-10 dtmpmx=   8.8926E-11

== TH FLOW =====================================================================
 Step    239 Time=  1.13500E+01 Dt=  5.00000E-02 [y] snes_conv_reason:   11
  newton =   1 [     246] linear =   107 [     31336] cuts =  0 [   0]
  --> max chng: dpmx=   2.3283E-10 dtmpmx=   9.4699E-11

== TH FLOW =====================================================================
 Step    240 Time=  1.14000E+01 Dt=  5.00000E-02 [y] snes_conv_reason:   11
  newton =   1 [     247] linear =    76 [     31412] cuts =  0 [   0]
  --> max chng: dpmx=   2.3283E-10 dtmpmx=   9.4941E-11

== TH FLOW =====================================================================
 Step    241 Time=  1.14500E+01 Dt=  5.00000E-02 [y] snes_conv_reason:   11
  newton =   1 [     248] linear =   120 [     31532] cuts =  0 [   0]
  --> max chng: dpmx=   2.3283E-10 dtmpmx=   8.6303E-11

== TH FLOW =====================================================================
 Step    242 Time=  1.15000E+01 Dt=  5.00000E-02 [y] snes_conv_reason:   11
  newton =   1 [     249] linear =    73 [     31605] cuts =  0 [   0]
  --> max chng: dpmx=   2.3283E-10 dtmpmx=   8.6370E-11

== TH FLOW =====================================================================
 Step    243 Time=  1.15500E+01 Dt=  5.00000E-02 [y] snes_conv_reason:   11
  newton =   1 [     250] linear =    94 [     31699] cuts =  0 [   0]
  --> max chng: dpmx=   2.3283E-10 dtmpmx=   9.5469E-11

== TH FLOW =====================================================================
 Step    244 Time=  1.16000E+01 Dt=  5.00000E-02 [y] snes_conv_reason:   11
  newton =   1 [     251] linear =    79 [     31778] cuts =  0 [   0]
  --> max chng: dpmx=   2.3283E-10 dtmpmx=   9.3268E-11

== TH FLOW =====================================================================
 Step    245 Time=  1.16500E+01 Dt=  5.00000E-02 [y] snes_conv_reason:   11
  newton =   1 [     252] linear =   108 [     31886] cuts =  0 [   0]
  --> max chng: dpmx=   2.3283E-10 dtmpmx=   8.8388E-11

== TH FLOW =====================================================================
 Step    246 Time=  1.17000E+01 Dt=  5.00000E-02 [y] snes_conv_reason:   11
  newton =   1 [     253] linear =   113 [     31999] cuts =  0 [   0]
  --> max chng: dpmx=   2.3283E-10 dtmpmx=   8.9475E-11

== TH FLOW =====================================================================
 Step    247 Time=  1.17500E+01 Dt=  5.00000E-02 [y] snes_conv_reason:   11
  newton =   1 [     254] linear =    96 [     32095] cuts =  0 [   0]
  --> max chng: dpmx=   2.3283E-10 dtmpmx=   9.1058E-11

== TH FLOW =====================================================================
 Step    248 Time=  1.18000E+01 Dt=  5.00000E-02 [y] snes_conv_reason:   11
  newton =   1 [     255] linear =    99 [     32194] cuts =  0 [   0]
  --> max chng: dpmx=   2.3283E-10 dtmpmx=   8.5228E-11

== TH FLOW =====================================================================
 Step    249 Time=  1.18500E+01 Dt=  5.00000E-02 [y] snes_conv_reason:   11
  newton =   1 [     256] linear =    93 [     32287] cuts =  0 [   0]
  --> max chng: dpmx=   2.3283E-10 dtmpmx=   9.3923E-11

== TH FLOW =====================================================================
 Step    250 Time=  1.19000E+01 Dt=  5.00000E-02 [y] snes_conv_reason:   11
  newton =   1 [     257] linear =   105 [     32392] cuts =  0 [   0]
  --> max chng: dpmx=   2.3283E-10 dtmpmx=   8.8566E-11

== TH FLOW =====================================================================
 Step    251 Time=  1.19500E+01 Dt=  5.00000E-02 [y] snes_conv_reason:   11
  newton =   1 [     258] linear =   129 [     32521] cuts =  0 [   0]
  --> max chng: dpmx=   2.3283E-10 dtmpmx=   8.5958E-11

== TH FLOW =====================================================================
 Step    252 Time=  1.20000E+01 Dt=  5.00000E-02 [y] snes_conv_reason:   11
  newton =   1 [     259] linear =   116 [     32637] cuts =  0 [   0]
  --> max chng: dpmx=   2.3283E-10 dtmpmx=   9.3113E-11

== TH FLOW =====================================================================
 Step    253 Time=  1.20500E+01 Dt=  5.00000E-02 [y] snes_conv_reason:   11
  newton =   1 [     260] linear =   112 [     32749] cuts =  0 [   0]
  --> max chng: dpmx=   2.3283E-10 dtmpmx=   1.0943E-10

== TH FLOW =====================================================================
 Step    254 Time=  1.21000E+01 Dt=  5.00000E-02 [y] snes_conv_reason:   11
  newton =   1 [     261] linear =   129 [     32878] cuts =  0 [   0]
  --> max chng: dpmx=   2.3283E-10 dtmpmx=   9.8796E-11

== TH FLOW =====================================================================
 Step    255 Time=  1.21500E+01 Dt=  5.00000E-02 [y] snes_conv_reason:   11
  newton =   1 [     262] linear =    95 [     32973] cuts =  0 [   0]
  --> max chng: dpmx=   2.3283E-10 dtmpmx=   9.8629E-11

== TH FLOW =====================================================================
 Step    256 Time=  1.22000E+01 Dt=  5.00000E-02 [y] snes_conv_reason:   11
  newton =   1 [     263] linear =    83 [     33056] cuts =  0 [   0]
  --> max chng: dpmx=   2.3283E-10 dtmpmx=   8.2929E-11

== TH FLOW =====================================================================
 Step    257 Time=  1.22500E+01 Dt=  5.00000E-02 [y] snes_conv_reason:   11
  newton =   1 [     264] linear =    78 [     33134] cuts =  0 [   0]
  --> max chng: dpmx=   2.3283E-10 dtmpmx=   9.5046E-11

[...]
 Step    493 Time=  2.40500E+01 Dt=  5.00000E-02 [y] snes_conv_reason:   11
  newton =   1 [     500] linear =   102 [     58561] cuts =  0 [   0]
  --> max chng: dpmx=   2.3283E-10 dtmpmx=   9.6396E-11

== TH FLOW =====================================================================
 Step    494 Time=  2.41000E+01 Dt=  5.00000E-02 [y] snes_conv_reason:   11
  newton =   1 [     501] linear =   125 [     58686] cuts =  0 [   0]
  --> max chng: dpmx=   2.3283E-10 dtmpmx=   9.6099E-11

== TH FLOW =====================================================================
 Step    495 Time=  2.41500E+01 Dt=  5.00000E-02 [y] snes_conv_reason:   11
  newton =   1 [     502] linear =    87 [     58773] cuts =  0 [   0]
  --> max chng: dpmx=   2.3283E-10 dtmpmx=   8.7869E-11

== TH FLOW =====================================================================
 Step    496 Time=  2.42000E+01 Dt=  5.00000E-02 [y] snes_conv_reason:   11
  newton =   1 [     503] linear =    84 [     58857] cuts =  0 [   0]
  --> max chng: dpmx=   2.3283E-10 dtmpmx=   8.5267E-11

== TH FLOW =====================================================================
 Step    497 Time=  2.42500E+01 Dt=  5.00000E-02 [y] snes_conv_reason:   11
  newton =   1 [     504] linear =   136 [     58993] cuts =  0 [   0]
  --> max chng: dpmx=   2.3283E-10 dtmpmx=   1.0190E-10

== TH FLOW =====================================================================
 Step    498 Time=  2.43000E+01 Dt=  5.00000E-02 [y] snes_conv_reason:   11
  newton =   1 [     505] linear =   115 [     59108] cuts =  0 [   0]
  --> max chng: dpmx=   2.3283E-10 dtmpmx=   9.3801E-11

== TH FLOW =====================================================================
 Step    499 Time=  2.43500E+01 Dt=  5.00000E-02 [y] snes_conv_reason:   11
  newton =   1 [     506] linear =   108 [     59216] cuts =  0 [   0]
  --> max chng: dpmx=   2.3283E-10 dtmpmx=   8.3601E-11

== TH FLOW =====================================================================
 Step    500 Time=  2.44000E+01 Dt=  5.00000E-02 [y] snes_conv_reason:   11
  newton =   1 [     507] linear =    50 [     59266] cuts =  0 [   0]
  --> max chng: dpmx=   2.3283E-10 dtmpmx=   8.5905E-11

== TH FLOW =====================================================================
 Step    501 Time=  2.44500E+01 Dt=  5.00000E-02 [y] snes_conv_reason:   11
  newton =   1 [     508] linear =    92 [     59358] cuts =  0 [   0]
  --> max chng: dpmx=   2.3283E-10 dtmpmx=   9.2731E-11

== TH FLOW =====================================================================
 Step    502 Time=  2.45000E+01 Dt=  5.00000E-02 [y] snes_conv_reason:   11
  newton =   1 [     509] linear =   119 [     59477] cuts =  0 [   0]
  --> max chng: dpmx=   2.3283E-10 dtmpmx=   8.6150E-11

== TH FLOW =====================================================================
 Step    503 Time=  2.45500E+01 Dt=  5.00000E-02 [y] snes_conv_reason:   11
  newton =   1 [     510] linear =   109 [     59586] cuts =  0 [   0]
  --> max chng: dpmx=   2.3283E-10 dtmpmx=   8.6594E-11

== TH FLOW =====================================================================
 Step    504 Time=  2.46000E+01 Dt=  5.00000E-02 [y] snes_conv_reason:   11
  newton =   1 [     511] linear =    84 [     59670] cuts =  0 [   0]
  --> max chng: dpmx=   2.3283E-10 dtmpmx=   1.0117E-10

== TH FLOW =====================================================================
 Step    505 Time=  2.46500E+01 Dt=  5.00000E-02 [y] snes_conv_reason:   11
  newton =   1 [     512] linear =   105 [     59775] cuts =  0 [   0]
  --> max chng: dpmx=   2.3283E-10 dtmpmx=   8.6267E-11

== TH FLOW =====================================================================
 Step    506 Time=  2.47000E+01 Dt=  5.00000E-02 [y] snes_conv_reason:   11
  newton =   1 [     513] linear =   104 [     59879] cuts =  0 [   0]
  --> max chng: dpmx=   2.3283E-10 dtmpmx=   8.6880E-11

== TH FLOW =====================================================================
 Step    507 Time=  2.47500E+01 Dt=  5.00000E-02 [y] snes_conv_reason:   11
  newton =   1 [     514] linear =   117 [     59996] cuts =  0 [   0]
  --> max chng: dpmx=   2.3283E-10 dtmpmx=   9.1294E-11

== TH FLOW =====================================================================
 Step    508 Time=  2.48000E+01 Dt=  5.00000E-02 [y] snes_conv_reason:   11
  newton =   1 [     515] linear =   120 [     60116] cuts =  0 [   0]
  --> max chng: dpmx=   2.3283E-10 dtmpmx=   1.0837E-10

== TH FLOW =====================================================================
 Step    509 Time=  2.48500E+01 Dt=  5.00000E-02 [y] snes_conv_reason:   11
  newton =   1 [     516] linear =    88 [     60204] cuts =  0 [   0]
  --> max chng: dpmx=   2.3283E-10 dtmpmx=   9.7156E-11

== TH FLOW =====================================================================
 Step    510 Time=  2.49000E+01 Dt=  5.00000E-02 [y] snes_conv_reason:   11
  newton =   1 [     517] linear =    98 [     60302] cuts =  0 [   0]
  --> max chng: dpmx=   2.3283E-10 dtmpmx=   8.6512E-11

== TH FLOW =====================================================================
 Step    511 Time=  2.49500E+01 Dt=  5.00000E-02 [y] snes_conv_reason:   11
  newton =   1 [     518] linear =   108 [     60410] cuts =  0 [   0]
  --> max chng: dpmx=   2.3283E-10 dtmpmx=   8.9669E-11

== TH FLOW =====================================================================
 Step    512 Time=  2.50000E+01 Dt=  5.00000E-02 [y] snes_conv_reason:   11
  newton =   1 [     519] linear =    98 [     60508] cuts =  0 [   0]
  --> max chng: dpmx=   2.3283E-10 dtmpmx=   1.0299E-10

== TH FLOW =====================================================================
 Step    513 Time=  2.50500E+01 Dt=  5.00000E-02 [y] snes_conv_reason:   11
  newton =   1 [     520] linear =   122 [     60630] cuts =  0 [   0]
  --> max chng: dpmx=   2.3283E-10 dtmpmx=   9.6943E-11

== TH FLOW =====================================================================
 Step    514 Time=  2.51000E+01 Dt=  5.00000E-02 [y] snes_conv_reason:   11
  newton =   1 [     521] linear =   119 [     60749] cuts =  0 [   0]
  --> max chng: dpmx=   2.3283E-10 dtmpmx=   9.4923E-11

== TH FLOW =====================================================================
 Step    515 Time=  2.51500E+01 Dt=  5.00000E-02 [y] snes_conv_reason:   11
  newton =   1 [     522] linear =   110 [     60859] cuts =  0 [   0]
  --> max chng: dpmx=   2.3283E-10 dtmpmx=   1.0241E-10

== TH FLOW =====================================================================
 Step    516 Time=  2.52000E+01 Dt=  5.00000E-02 [y] snes_conv_reason:   11
  newton =   1 [     523] linear =    73 [     60932] cuts =  0 [   0]
  --> max chng: dpmx=   2.3283E-10 dtmpmx=   9.5490E-11

== TH FLOW =====================================================================
 Step    517 Time=  2.52500E+01 Dt=  5.00000E-02 [y] snes_conv_reason:   11
  newton =   1 [     524] linear =   128 [     61060] cuts =  0 [   0]
  --> max chng: dpmx=   2.3283E-10 dtmpmx=   9.3200E-11

== TH FLOW =====================================================================
 Step    518 Time=  2.53000E+01 Dt=  5.00000E-02 [y] snes_conv_reason:   11
  newton =   1 [     525] linear =    99 [     61159] cuts =  0 [   0]
  --> max chng: dpmx=   2.3283E-10 dtmpmx=   9.1397E-11

== TH FLOW =====================================================================
 Step    519 Time=  2.53500E+01 Dt=  5.00000E-02 [y] snes_conv_reason:   11
  newton =   1 [     526] linear =   102 [     61261] cuts =  0 [   0]
  --> max chng: dpmx=   2.3283E-10 dtmpmx=   8.6434E-11

== TH FLOW =====================================================================
 Step    520 Time=  2.54000E+01 Dt=  5.00000E-02 [y] snes_conv_reason:   11
  newton =   1 [     527] linear =    93 [     61354] cuts =  0 [   0]
  --> max chng: dpmx=   2.3283E-10 dtmpmx=   8.6306E-11

== TH FLOW =====================================================================
 Step    521 Time=  2.54500E+01 Dt=  5.00000E-02 [y] snes_conv_reason:   11
  newton =   1 [     528] linear =    65 [     61419] cuts =  0 [   0]
  --> max chng: dpmx=   2.3283E-10 dtmpmx=   8.3144E-11

== TH FLOW =====================================================================
 Step    522 Time=  2.55000E+01 Dt=  5.00000E-02 [y] snes_conv_reason:   11
  newton =   1 [     529] linear =    83 [     61502] cuts =  0 [   0]
  --> max chng: dpmx=   2.3283E-10 dtmpmx=   8.8749E-11

== TH FLOW =====================================================================
 Step    523 Time=  2.55500E+01 Dt=  5.00000E-02 [y] snes_conv_reason:   11
  newton =   1 [     530] linear =   126 [     61628] cuts =  0 [   0]
  --> max chng: dpmx=   2.3283E-10 dtmpmx=   1.0616E-10

== TH FLOW =====================================================================
 Step    524 Time=  2.56000E+01 Dt=  5.00000E-02 [y] snes_conv_reason:   11
  newton =   1 [     531] linear =   118 [     61746] cuts =  0 [   0]
  --> max chng: dpmx=   2.3283E-10 dtmpmx=   8.5272E-11

== TH FLOW =====================================================================
 Step    525 Time=  2.56500E+01 Dt=  5.00000E-02 [y] snes_conv_reason:   11
  newton =   1 [     532] linear =   131 [     61877] cuts =  0 [   0]
  --> max chng: dpmx=   2.3283E-10 dtmpmx=   9.7712E-11

== TH FLOW =====================================================================
 Step    526 Time=  2.57000E+01 Dt=  5.00000E-02 [y] snes_conv_reason:   11
  newton =   1 [     533] linear =   124 [     62001] cuts =  0 [   0]
  --> max chng: dpmx=   2.3283E-10 dtmpmx=   8.5613E-11

== TH FLOW =====================================================================
 Step    527 Time=  2.57500E+01 Dt=  5.00000E-02 [y] snes_conv_reason:   11
  newton =   1 [     534] linear =    69 [     62070] cuts =  0 [   0]
  --> max chng: dpmx=   2.3283E-10 dtmpmx=   9.4015E-11

== TH FLOW =====================================================================
 Step    528 Time=  2.58000E+01 Dt=  5.00000E-02 [y] snes_conv_reason:   11
  newton =   1 [     535] linear =   115 [     62185] cuts =  0 [   0]
  --> max chng: dpmx=   2.3283E-10 dtmpmx=   9.7369E-11

== TH FLOW =====================================================================
 Step    529 Time=  2.58500E+01 Dt=  5.00000E-02 [y] snes_conv_reason:   11
  newton =   1 [     536] linear =    98 [     62283] cuts =  0 [   0]
  --> max chng: dpmx=   2.3283E-10 dtmpmx=   1.0247E-10

== TH FLOW =====================================================================
 Step    530 Time=  2.59000E+01 Dt=  5.00000E-02 [y] snes_conv_reason:   11
  newton =   1 [     537] linear =   107 [     62390] cuts =  0 [   0]
  --> max chng: dpmx=   2.3283E-10 dtmpmx=   8.2839E-11

== TH FLOW =====================================================================
 Step    531 Time=  2.59500E+01 Dt=  5.00000E-02 [y] snes_conv_reason:   11
  newton =   1 [     538] linear =    92 [     62482] cuts =  0 [   0]
  --> max chng: dpmx=   2.3283E-10 dtmpmx=   1.0659E-10

== TH FLOW =====================================================================
 Step    532 Time=  2.60000E+01 Dt=  5.00000E-02 [y] snes_conv_reason:   11
  newton =   1 [     539] linear =   111 [     62593] cuts =  0 [   0]
  --> max chng: dpmx=   2.3283E-10 dtmpmx=   9.8035E-11

== TH FLOW =====================================================================
 Step    533 Time=  2.60500E+01 Dt=  5.00000E-02 [y] snes_conv_reason:   11
  newton =   1 [     540] linear =   129 [     62722] cuts =  0 [   0]
  --> max chng: dpmx=   2.3283E-10 dtmpmx=   9.7359E-11

== TH FLOW =====================================================================
 Step    534 Time=  2.61000E+01 Dt=  5.00000E-02 [y] snes_conv_reason:   11
  newton =   1 [     541] linear =    99 [     62821] cuts =  0 [   0]
  --> max chng: dpmx=   2.3283E-10 dtmpmx=   8.8797E-11

== TH FLOW =====================================================================
 Step    535 Time=  2.61500E+01 Dt=  5.00000E-02 [y] snes_conv_reason:   11
  newton =   1 [     542] linear =   109 [     62930] cuts =  0 [   0]
  --> max chng: dpmx=   2.3283E-10 dtmpmx=   8.9063E-11

== TH FLOW =====================================================================
 Step    536 Time=  2.62000E+01 Dt=  5.00000E-02 [y] snes_conv_reason:   11
  newton =   1 [     543] linear =    51 [     62981] cuts =  0 [   0]
  --> max chng: dpmx=   2.3283E-10 dtmpmx=   9.1939E-11

== TH FLOW =====================================================================
 Step    537 Time=  2.62500E+01 Dt=  5.00000E-02 [y] snes_conv_reason:   11
  newton =   1 [     544] linear =    70 [     63051] cuts =  0 [   0]
  --> max chng: dpmx=   2.3283E-10 dtmpmx=   9.2149E-11

== TH FLOW =====================================================================
 Step    538 Time=  2.63000E+01 Dt=  5.00000E-02 [y] snes_conv_reason:   11
  newton =   1 [     545] linear =   122 [     63173] cuts =  0 [   0]
  --> max chng: dpmx=   2.3283E-10 dtmpmx=   8.4709E-11

== TH FLOW =====================================================================
 Step    539 Time=  2.63500E+01 Dt=  5.00000E-02 [y] snes_conv_reason:   11
  newton =   1 [     546] linear =   116 [     63289] cuts =  0 [   0]
  --> max chng: dpmx=   2.3283E-10 dtmpmx=   1.0350E-10

== TH FLOW =====================================================================
 Step    540 Time=  2.64000E+01 Dt=  5.00000E-02 [y] snes_conv_reason:   11
  newton =   1 [     547] linear =   104 [     63393] cuts =  0 [   0]
  --> max chng: dpmx=   2.3283E-10 dtmpmx=   9.8176E-11

== TH FLOW =====================================================================
 Step    541 Time=  2.64500E+01 Dt=  5.00000E-02 [y] snes_conv_reason:   11
  newton =   1 [     548] linear =   126 [     63519] cuts =  0 [   0]
  --> max chng: dpmx=   2.3283E-10 dtmpmx=   8.6189E-11

== TH FLOW =====================================================================
 Step    542 Time=  2.65000E+01 Dt=  5.00000E-02 [y] snes_conv_reason:   11
  newton =   1 [     549] linear =    91 [     63610] cuts =  0 [   0]
  --> max chng: dpmx=   2.3283E-10 dtmpmx=   9.0290E-11

== TH FLOW =====================================================================
 Step    543 Time=  2.65500E+01 Dt=  5.00000E-02 [y] snes_conv_reason:   11
  newton =   1 [     550] linear =   111 [     63721] cuts =  0 [   0]
  --> max chng: dpmx=   2.3283E-10 dtmpmx=   9.7808E-11

== TH FLOW =====================================================================
 Step    544 Time=  2.66000E+01 Dt=  5.00000E-02 [y] snes_conv_reason:   11
  newton =   1 [     551] linear =   106 [     63827] cuts =  0 [   0]
  --> max chng: dpmx=   2.3283E-10 dtmpmx=   9.7272E-11

== TH FLOW =====================================================================
 Step    545 Time=  2.66500E+01 Dt=  5.00000E-02 [y] snes_conv_reason:   11
  newton =   1 [     552] linear =   115 [     63942] cuts =  0 [   0]
  --> max chng: dpmx=   2.3283E-10 dtmpmx=   9.3776E-11

== TH FLOW =====================================================================
 Step    546 Time=  2.67000E+01 Dt=  5.00000E-02 [y] snes_conv_reason:   11
  newton =   1 [     553] linear =   107 [     64049] cuts =  0 [   0]
  --> max chng: dpmx=   2.3283E-10 dtmpmx=   9.6621E-11

== TH FLOW =====================================================================
 Step    547 Time=  2.67500E+01 Dt=  5.00000E-02 [y] snes_conv_reason:   11
  newton =   1 [     554] linear =   110 [     64159] cuts =  0 [   0]
  --> max chng: dpmx=   2.3283E-10 dtmpmx=   9.2395E-11

== TH FLOW =====================================================================
 Step    548 Time=  2.68000E+01 Dt=  5.00000E-02 [y] snes_conv_reason:   11
  newton =   1 [     555] linear =    99 [     64258] cuts =  0 [   0]
  --> max chng: dpmx=   2.3283E-10 dtmpmx=   1.0772E-10

== TH FLOW =====================================================================
 Step    549 Time=  2.68500E+01 Dt=  5.00000E-02 [y] snes_conv_reason:   11
  newton =   1 [     556] linear =    74 [     64332] cuts =  0 [   0]
  --> max chng: dpmx=   2.3283E-10 dtmpmx=   9.2106E-11

== TH FLOW =====================================================================
 Step    550 Time=  2.69000E+01 Dt=  5.00000E-02 [y] snes_conv_reason:   11
  newton =   1 [     557] linear =    89 [     64421] cuts =  0 [   0]
  --> max chng: dpmx=   2.3283E-10 dtmpmx=   9.9021E-11

== TH FLOW =====================================================================
 Step    551 Time=  2.69500E+01 Dt=  5.00000E-02 [y] snes_conv_reason:   11
  newton =   1 [     558] linear =   104 [     64525] cuts =  0 [   0]
  --> max chng: dpmx=   2.3283E-10 dtmpmx=   9.7874E-11

== TH FLOW =====================================================================
 Step    552 Time=  2.70000E+01 Dt=  5.00000E-02 [y] snes_conv_reason:   11
  newton =   1 [     559] linear =   100 [     64625] cuts =  0 [   0]
  --> max chng: dpmx=   2.3283E-10 dtmpmx=   8.2531E-11

== TH FLOW =====================================================================
 Step    553 Time=  2.70500E+01 Dt=  5.00000E-02 [y] snes_conv_reason:   11
  newton =   1 [     560] linear =   127 [     64752] cuts =  0 [   0]
  --> max chng: dpmx=   2.3283E-10 dtmpmx=   9.3644E-11

== TH FLOW =====================================================================
 Step    554 Time=  2.71000E+01 Dt=  5.00000E-02 [y] snes_conv_reason:   11
  newton =   1 [     561] linear =   113 [     64865] cuts =  0 [   0]
  --> max chng: dpmx=   2.3283E-10 dtmpmx=   9.4900E-11

== TH FLOW =====================================================================
 Step    555 Time=  2.71500E+01 Dt=  5.00000E-02 [y] snes_conv_reason:   11
  newton =   1 [     562] linear =   113 [     64978] cuts =  0 [   0]
  --> max chng: dpmx=   2.3283E-10 dtmpmx=   8.9363E-11

== TH FLOW =====================================================================
 Step    556 Time=  2.72000E+01 Dt=  5.00000E-02 [y] snes_conv_reason:   11
  newton =   1 [     563] linear =   102 [     65080] cuts =  0 [   0]
  --> max chng: dpmx=   2.3283E-10 dtmpmx=   9.7968E-11

== TH FLOW =====================================================================
 Step    557 Time=  2.72500E+01 Dt=  5.00000E-02 [y] snes_conv_reason:   11
  newton =   1 [     564] linear =    93 [     65173] cuts =  0 [   0]
  --> max chng: dpmx=   2.3283E-10 dtmpmx=   9.5525E-11

== TH FLOW =====================================================================
 Step    558 Time=  2.73000E+01 Dt=  5.00000E-02 [y] snes_conv_reason:   11
  newton =   1 [     565] linear =   131 [     65304] cuts =  0 [   0]
  --> max chng: dpmx=   2.3283E-10 dtmpmx=   9.6330E-11

== TH FLOW =====================================================================
 Step    559 Time=  2.73500E+01 Dt=  5.00000E-02 [y] snes_conv_reason:   11
  newton =   1 [     566] linear =   105 [     65409] cuts =  0 [   0]
  --> max chng: dpmx=   2.3283E-10 dtmpmx=   9.3928E-11

== TH FLOW =====================================================================
 Step    560 Time=  2.74000E+01 Dt=  5.00000E-02 [y] snes_conv_reason:   11
  newton =   1 [     567] linear =   132 [     65541] cuts =  0 [   0]
  --> max chng: dpmx=   2.3283E-10 dtmpmx=   8.5262E-11

== TH FLOW =====================================================================
 Step    561 Time=  2.74500E+01 Dt=  5.00000E-02 [y] snes_conv_reason:   11
  newton =   1 [     568] linear =    65 [     65606] cuts =  0 [   0]
  --> max chng: dpmx=   2.3283E-10 dtmpmx=   1.0134E-10

== TH FLOW =====================================================================
 Step    562 Time=  2.75000E+01 Dt=  5.00000E-02 [y] snes_conv_reason:   11
  newton =   1 [     569] linear =   142 [     65748] cuts =  0 [   0]
  --> max chng: dpmx=   2.3283E-10 dtmpmx=   8.6240E-11

 Wall Clock Time:  1.3057E+02 [sec]   2.1761E+00 [min]   3.6268E-02 [hr]
