
===================
  PFLOTRAN v3.0.1
===================

 Extent of Gridded Domain
  X: 2.5000000000000000 - 97.500000000000000
  Y: 2.5000000000000000 - 1277.5000000000000
  Z: 2.5000000000000000 - 2.5000000000000000


=+=+=+=+=+=+=+=+=+=+=+=+=+=+=+=+=+=+=+=+=+=+=+=+=+=+=+=+=+=+=+=+=+=+=+=+=+=+=+=+

  Initial Condition

--------------------------------------------------------------------------------
          Flow Condition:   initial
                  Region:   all
--------------------------------------------------------------------------------

  Flow Condition: initial
    Synchronize time with update: no
    Time units: yr
    Length units: m
      Datum:
        Dataset: Unnamed Ascii Dataset
          Type: dataset_ascii_type
          Transient: no
          Array Rank:  3

    Sub Condition: pressure
      Type: hydrostatic
      Gradient:
        Dataset: Unnamed Ascii Dataset
          Type: dataset_ascii_type
          Transient: no
          Array Rank:  3
      Data:
        Dataset: Unnamed Ascii Dataset
          Type: dataset_ascii_type
          Transient: no
          Array Rank:  1

    Sub Condition: temperature
      Type: dirichlet
      Gradient:
      Data:
        Dataset: Unnamed Ascii Dataset
          Type: dataset_ascii_type
          Transient: no
          Array Rank:  1

--------------------------------------------------------------------------------

=+=+=+=+=+=+=+=+=+=+=+=+=+=+=+=+=+=+=+=+=+=+=+=+=+=+=+=+=+=+=+=+=+=+=+=+=+=+=+=+

  Boundary Condition

--------------------------------------------------------------------------------
          Flow Condition:   initial
                  Region:   north
--------------------------------------------------------------------------------

  Flow Condition: initial
    Synchronize time with update: no
    Time units: yr
    Length units: m
      Datum:
        Dataset: Unnamed Ascii Dataset
          Type: dataset_ascii_type
          Transient: no
          Array Rank:  3

    Sub Condition: pressure
      Type: hydrostatic
      Gradient:
        Dataset: Unnamed Ascii Dataset
          Type: dataset_ascii_type
          Transient: no
          Array Rank:  3
      Data:
        Dataset: Unnamed Ascii Dataset
          Type: dataset_ascii_type
          Transient: no
          Array Rank:  1

    Sub Condition: temperature
      Type: dirichlet
      Gradient:
      Data:
        Dataset: Unnamed Ascii Dataset
          Type: dataset_ascii_type
          Transient: no
          Array Rank:  1

--------------------------------------------------------------------------------

=+=+=+=+=+=+=+=+=+=+=+=+=+=+=+=+=+=+=+=+=+=+=+=+=+=+=+=+=+=+=+=+=+=+=+=+=+=+=+=+

  Boundary Condition

--------------------------------------------------------------------------------
          Flow Condition:   initial
                  Region:   south
--------------------------------------------------------------------------------

  Flow Condition: initial
    Synchronize time with update: no
    Time units: yr
    Length units: m
      Datum:
        Dataset: Unnamed Ascii Dataset
          Type: dataset_ascii_type
          Transient: no
          Array Rank:  3

    Sub Condition: pressure
      Type: hydrostatic
      Gradient:
        Dataset: Unnamed Ascii Dataset
          Type: dataset_ascii_type
          Transient: no
          Array Rank:  3
      Data:
        Dataset: Unnamed Ascii Dataset
          Type: dataset_ascii_type
          Transient: no
          Array Rank:  1

    Sub Condition: temperature
      Type: dirichlet
      Gradient:
      Data:
        Dataset: Unnamed Ascii Dataset
          Type: dataset_ascii_type
          Transient: no
          Array Rank:  1

--------------------------------------------------------------------------------

=+=+=+=+=+=+=+=+=+=+=+=+=+=+=+=+=+=+=+=+=+=+=+=+=+=+=+=+=+=+=+=+=+=+=+=+=+=+=+=+

  Source Sink

--------------------------------------------------------------------------------
          Flow Condition:   injection
                  Region:   heatpump_inject0
--------------------------------------------------------------------------------

  Flow Condition: injection
    Synchronize time with update: no
    Time units: yr
    Length units: m
      Datum:

    Sub Condition: rate
      Type: scaled volumetric rate
      Gradient:
      Data:
        Dataset: Unnamed Ascii Dataset
          Type: dataset_ascii_type
          Is transient?: yes
          Number of times:      3
          Is cyclic?: no
          Buffer:
            Rank:  2
            Dims:    1   3
            Buffer Slice Size:   0
          Array Rank:  1

    Sub Condition: temperature
      Type: dirichlet
      Gradient:
      Data:
        Dataset: Unnamed Ascii Dataset
          Type: dataset_ascii_type
          Transient: no
          Array Rank:  1

--------------------------------------------------------------------------------

 Requested processors =    32

FLOW Time Stepper
                 acceleration: on
       acceleration threshold: 5
       number of ramp entries: 5
                ramp entry #1: 2.0000
                ramp entry #2: 2.0000
                ramp entry #3: 2.0000
                ramp entry #4: 2.0000
                ramp entry #5: 2.0000
                ramp entry #6: 1.8000
                ramp entry #7: 1.6000
                ramp entry #8: 1.4000
                ramp entry #9: 1.2000
               ramp entry #10: 1.0000
               ramp entry #11: 1.0000
               ramp entry #12: 1.0000
               ramp entry #13: 1.0000
      maximum number of steps: 999999
constant time steps threshold: 5
       maximum number of cuts: 16
             reduction factor: 5.000000E-01
        maximum growth factor: 2.000000E+00

FLOW Newton Solver
                         atol: 1.000000E-50
                         rtol: 1.000000E-03
                         stol: 1.000000E-08
                         dtol: 1.000000E+04
                      maxnorm: 1.000000E+20
                    inftolres: -9.990000E+02
                    inftolupd: 1.000000E+00
                 inftolrelupd: -9.990000E+02
                 inftolsclres: -9.990000E+02
                     max iter: 50
                     min iter: 1
                         maxf: 10000
                  matrix type: baij
         precond. matrix type: baij
               inexact newton: off
            print convergence: on
   print detailed convergence: off
          check infinity norm: on

FLOW Linear Solver
                       solver: bcgs
               preconditioner: bjacobi
                         atol: 1.000000E-50
                         rtol: 1.000000E-05
                         dtol: 1.000000E+04
            maximum iteration: 10000

== TH FLOW =====================================================================
 Step      1 Time=  1.00000E-05 Dt=  1.00000E-05 [y] snes_conv_reason:   11
  newton =   1 [       1] linear =   107 [       107] cuts =  0 [   0]
  --> max chng: dpmx=   2.7564E-02 dtmpmx=   1.4042E-09

== TH FLOW =====================================================================
 Step      2 Time=  3.00000E-05 Dt=  2.00000E-05 [y] snes_conv_reason:   11
  newton =   1 [       2] linear =   122 [       229] cuts =  0 [   0]
  --> max chng: dpmx=   2.0639E-02 dtmpmx=   2.7653E-09

== TH FLOW =====================================================================
 Step      3 Time=  7.00000E-05 Dt=  4.00000E-05 [y] snes_conv_reason:   11
  newton =   1 [       3] linear =   110 [       339] cuts =  0 [   0]
  --> max chng: dpmx=   9.0375E-03 dtmpmx=   5.4903E-09

== TH FLOW =====================================================================
 Step      4 Time=  1.50000E-04 Dt=  8.00000E-05 [y] snes_conv_reason:   11
  newton =   1 [       4] linear =   117 [       456] cuts =  0 [   0]
  --> max chng: dpmx=   2.2024E-03 dtmpmx=   1.0961E-08

== TH FLOW =====================================================================
 Step      5 Time=  3.10000E-04 Dt=  1.60000E-04 [y] snes_conv_reason:   11
  newton =   1 [       5] linear =   126 [       582] cuts =  0 [   0]
  --> max chng: dpmx=   2.8540E-04 dtmpmx=   2.1916E-08

== TH FLOW =====================================================================
 Step      6 Time=  6.30000E-04 Dt=  3.20000E-04 [y] snes_conv_reason:   11
  newton =   1 [       6] linear =   126 [       708] cuts =  0 [   0]
  --> max chng: dpmx=   1.9049E-05 dtmpmx=   4.3833E-08

== TH FLOW =====================================================================
 Step      7 Time=  1.27000E-03 Dt=  6.40000E-04 [y] snes_conv_reason:   11
  newton =   1 [       7] linear =   130 [       838] cuts =  0 [   0]
  --> max chng: dpmx=   5.3062E-07 dtmpmx=   8.7666E-08

== TH FLOW =====================================================================
 Step      8 Time=  2.55000E-03 Dt=  1.28000E-03 [y] snes_conv_reason:   11
  newton =   1 [       8] linear =   118 [       956] cuts =  0 [   0]
  --> max chng: dpmx=   4.9570E-07 dtmpmx=   1.7533E-07

== TH FLOW =====================================================================
 Step      9 Time=  5.11000E-03 Dt=  2.56000E-03 [y] snes_conv_reason:   11
  newton =   1 [       9] linear =   127 [      1083] cuts =  0 [   0]
  --> max chng: dpmx=   1.0068E-06 dtmpmx=   3.5066E-07

== TH FLOW =====================================================================
 Step     10 Time=  1.02300E-02 Dt=  5.12000E-03 [y] snes_conv_reason:   11
  newton =   1 [      10] linear =   127 [      1210] cuts =  0 [   0]
  --> max chng: dpmx=   2.0715E-06 dtmpmx=   7.0133E-07

== TH FLOW =====================================================================
 Step     11 Time=  2.04700E-02 Dt=  1.02400E-02 [y] snes_conv_reason:   11
  newton =   1 [      11] linear =   123 [      1333] cuts =  0 [   0]
  --> max chng: dpmx=   4.3699E-06 dtmpmx=   1.4027E-06

== TH FLOW =====================================================================
 Step     12 Time=  4.09500E-02 Dt=  2.04800E-02 [y] snes_conv_reason:   11
  newton =   1 [      12] linear =   119 [      1452] cuts =  0 [   0]
  --> max chng: dpmx=   9.6704E-06 dtmpmx=   2.8053E-06

== TH FLOW =====================================================================
 Step     13 Time=  8.19100E-02 Dt=  4.09600E-02 [y] snes_conv_reason:   11
  newton =   1 [      13] linear =   130 [      1582] cuts =  0 [   0]
  --> max chng: dpmx=   2.2991E-05 dtmpmx=   5.6106E-06

== TH FLOW =====================================================================
 Step     14 Time=  1.00000E-01 Dt=  1.80900E-02 [y] snes_conv_reason:   11
  newton =   1 [      14] linear =   122 [      1704] cuts =  0 [   0]
  --> max chng: dpmx=   1.0870E-05 dtmpmx=   2.4779E-06

== TH FLOW =====================================================================
 Step     15 Time=  1.50000E-01 Dt=  5.00000E-02 [y] snes_conv_reason:   11
  newton =   1 [      15] linear =   127 [      1831] cuts =  0 [   0]
  --> max chng: dpmx=   3.5456E-05 dtmpmx=   6.8489E-06

== TH FLOW =====================================================================
 Step     16 Time=  2.00000E-01 Dt=  5.00000E-02 [y] snes_conv_reason:   11
  newton =   1 [      16] linear =   129 [      1960] cuts =  0 [   0]
  --> max chng: dpmx=   4.0805E-05 dtmpmx=   6.8489E-06

== TH FLOW =====================================================================
 Step     17 Time=  2.50000E-01 Dt=  5.00000E-02 [y] snes_conv_reason:    3
  newton =   3 [      19] linear =   398 [      2358] cuts =  0 [   0]
  --> max chng: dpmx=   1.2702E+03 dtmpmx=   3.5077E+00

== TH FLOW =====================================================================
 Step     18 Time=  3.00000E-01 Dt=  5.00000E-02 [y] snes_conv_reason:   11
  newton =   2 [      21] linear =   268 [      2626] cuts =  0 [   0]
  --> max chng: dpmx=   8.1162E+00 dtmpmx=   1.3331E+00

== TH FLOW =====================================================================
 Step     19 Time=  3.50000E-01 Dt=  5.00000E-02 [y] snes_conv_reason:   11
  newton =   2 [      23] linear =   263 [      2889] cuts =  0 [   0]
  --> max chng: dpmx=   4.0702E+00 dtmpmx=   8.5406E-01

== TH FLOW =====================================================================
 Step     20 Time=  4.00000E-01 Dt=  5.00000E-02 [y] snes_conv_reason:   11
  newton =   2 [      25] linear =   256 [      3145] cuts =  0 [   0]
  --> max chng: dpmx=   2.5011E+00 dtmpmx=   7.1155E-01

== TH FLOW =====================================================================
 Step     21 Time=  4.50000E-01 Dt=  5.00000E-02 [y] snes_conv_reason:   11
  newton =   2 [      27] linear =   260 [      3405] cuts =  0 [   0]
  --> max chng: dpmx=   2.2284E+00 dtmpmx=   5.6129E-01

== TH FLOW =====================================================================
 Step     22 Time=  5.00000E-01 Dt=  5.00000E-02 [y] snes_conv_reason:    3
  newton =   1 [      28] linear =   136 [      3541] cuts =  0 [   0]
  --> max chng: dpmx=   2.1524E+00 dtmpmx=   5.1479E-01

== TH FLOW =====================================================================
 Step     23 Time=  5.50000E-01 Dt=  5.00000E-02 [y] snes_conv_reason:    3
  newton =   1 [      29] linear =   137 [      3678] cuts =  0 [   0]
  --> max chng: dpmx=   2.0734E+00 dtmpmx=   4.5146E-01

== TH FLOW =====================================================================
 Step     24 Time=  6.00000E-01 Dt=  5.00000E-02 [y] snes_conv_reason:    3
  newton =   1 [      30] linear =   139 [      3817] cuts =  0 [   0]
  --> max chng: dpmx=   2.0144E+00 dtmpmx=   4.1247E-01

== TH FLOW =====================================================================
 Step     25 Time=  6.50000E-01 Dt=  5.00000E-02 [y] snes_conv_reason:    3
  newton =   1 [      31] linear =   139 [      3956] cuts =  0 [   0]
  --> max chng: dpmx=   1.9738E+00 dtmpmx=   3.8455E-01

== TH FLOW =====================================================================
 Step     26 Time=  7.00000E-01 Dt=  5.00000E-02 [y] snes_conv_reason:    3
  newton =   1 [      32] linear =   131 [      4087] cuts =  0 [   0]
  --> max chng: dpmx=   1.9289E+00 dtmpmx=   3.4800E-01

== TH FLOW =====================================================================
 Step     27 Time=  7.50000E-01 Dt=  5.00000E-02 [y] snes_conv_reason:    3
  newton =   1 [      33] linear =   140 [      4227] cuts =  0 [   0]
  --> max chng: dpmx=   1.9021E+00 dtmpmx=   3.3462E-01

== TH FLOW =====================================================================
 Step     28 Time=  8.00000E-01 Dt=  5.00000E-02 [y] snes_conv_reason:    3
  newton =   1 [      34] linear =   132 [      4359] cuts =  0 [   0]
  --> max chng: dpmx=   1.8679E+00 dtmpmx=   3.1636E-01

== TH FLOW =====================================================================
 Step     29 Time=  8.50000E-01 Dt=  5.00000E-02 [y] snes_conv_reason:    3
  newton =   1 [      35] linear =   134 [      4493] cuts =  0 [   0]
  --> max chng: dpmx=   1.8452E+00 dtmpmx=   2.9521E-01

== TH FLOW =====================================================================
 Step     30 Time=  9.00000E-01 Dt=  5.00000E-02 [y] snes_conv_reason:    3
  newton =   1 [      36] linear =   138 [      4631] cuts =  0 [   0]
  --> max chng: dpmx=   1.8195E+00 dtmpmx=   2.8665E-01

== TH FLOW =====================================================================
 Step     31 Time=  9.50000E-01 Dt=  5.00000E-02 [y] snes_conv_reason:    3
  newton =   1 [      37] linear =   137 [      4768] cuts =  0 [   0]
  --> max chng: dpmx=   1.7995E+00 dtmpmx=   2.7416E-01

== TH FLOW =====================================================================
 Step     32 Time=  1.00000E+00 Dt=  5.00000E-02 [y] snes_conv_reason:    3
  newton =   1 [      38] linear =   133 [      4901] cuts =  0 [   0]
  --> max chng: dpmx=   1.7790E+00 dtmpmx=   2.5953E-01

== TH FLOW =====================================================================
 Step     33 Time=  1.05000E+00 Dt=  5.00000E-02 [y] snes_conv_reason:    3
  newton =   1 [      39] linear =   131 [      5032] cuts =  0 [   0]
  --> max chng: dpmx=   1.7608E+00 dtmpmx=   2.5392E-01

== TH FLOW =====================================================================
 Step     34 Time=  1.10000E+00 Dt=  5.00000E-02 [y] snes_conv_reason:    3
  newton =   1 [      40] linear =   129 [      5161] cuts =  0 [   0]
  --> max chng: dpmx=   1.7446E+00 dtmpmx=   2.4507E-01

== TH FLOW =====================================================================
 Step     35 Time=  1.15000E+00 Dt=  5.00000E-02 [y] snes_conv_reason:    3
  newton =   1 [      41] linear =   138 [      5299] cuts =  0 [   0]
  --> max chng: dpmx=   1.7272E+00 dtmpmx=   2.3353E-01

== TH FLOW =====================================================================
 Step     36 Time=  1.20000E+00 Dt=  5.00000E-02 [y] snes_conv_reason:    3
  newton =   1 [      42] linear =   133 [      5432] cuts =  0 [   0]
  --> max chng: dpmx=   1.7141E+00 dtmpmx=   2.2993E-01

== TH FLOW =====================================================================
 Step     37 Time=  1.25000E+00 Dt=  5.00000E-02 [y] snes_conv_reason:    3
  newton =   1 [      43] linear =   133 [      5565] cuts =  0 [   0]
  --> max chng: dpmx=   1.6964E+00 dtmpmx=   2.2350E-01

== TH FLOW =====================================================================
 Step     38 Time=  1.30000E+00 Dt=  5.00000E-02 [y] snes_conv_reason:    3
  newton =   1 [      44] linear =   136 [      5701] cuts =  0 [   0]
  --> max chng: dpmx=   1.6876E+00 dtmpmx=   2.1473E-01

== TH FLOW =====================================================================
 Step     39 Time=  1.35000E+00 Dt=  5.00000E-02 [y] snes_conv_reason:    3
  newton =   1 [      45] linear =   117 [      5818] cuts =  0 [   0]
  --> max chng: dpmx=   1.6723E+00 dtmpmx=   2.1141E-01

== TH FLOW =====================================================================
 Step     40 Time=  1.40000E+00 Dt=  5.00000E-02 [y] snes_conv_reason:    3
  newton =   1 [      46] linear =   139 [      5957] cuts =  0 [   0]
  --> max chng: dpmx=   1.6623E+00 dtmpmx=   2.0667E-01

== TH FLOW =====================================================================
 Step     41 Time=  1.45000E+00 Dt=  5.00000E-02 [y] snes_conv_reason:    3
  newton =   1 [      47] linear =   138 [      6095] cuts =  0 [   0]
  --> max chng: dpmx=   1.6506E+00 dtmpmx=   1.9998E-01

== TH FLOW =====================================================================
 Step     42 Time=  1.50000E+00 Dt=  5.00000E-02 [y] snes_conv_reason:    3
  newton =   1 [      48] linear =   136 [      6231] cuts =  0 [   0]
  --> max chng: dpmx=   1.6395E+00 dtmpmx=   1.9656E-01

== TH FLOW =====================================================================
 Step     43 Time=  1.55000E+00 Dt=  5.00000E-02 [y] snes_conv_reason:    3
  newton =   1 [      49] linear =   135 [      6366] cuts =  0 [   0]
  --> max chng: dpmx=   1.6304E+00 dtmpmx=   1.9305E-01

== TH FLOW =====================================================================
 Step     44 Time=  1.60000E+00 Dt=  5.00000E-02 [y] snes_conv_reason:    3
  newton =   1 [      50] linear =   137 [      6503] cuts =  0 [   0]
  --> max chng: dpmx=   1.6179E+00 dtmpmx=   1.8787E-01

== TH FLOW =====================================================================
 Step     45 Time=  1.65000E+00 Dt=  5.00000E-02 [y] snes_conv_reason:    3
  newton =   1 [      51] linear =   139 [      6642] cuts =  0 [   0]
  --> max chng: dpmx=   1.6112E+00 dtmpmx=   1.8431E-01

== TH FLOW =====================================================================
 Step     46 Time=  1.70000E+00 Dt=  5.00000E-02 [y] snes_conv_reason:    3
  newton =   1 [      52] linear =   137 [      6779] cuts =  0 [   0]
  --> max chng: dpmx=   1.6005E+00 dtmpmx=   1.8170E-01

== TH FLOW =====================================================================
 Step     47 Time=  1.75000E+00 Dt=  5.00000E-02 [y] snes_conv_reason:    3
  newton =   1 [      53] linear =   139 [      6918] cuts =  0 [   0]
  --> max chng: dpmx=   1.5929E+00 dtmpmx=   1.7766E-01

== TH FLOW =====================================================================
 Step     48 Time=  1.80000E+00 Dt=  5.00000E-02 [y] snes_conv_reason:    3
  newton =   1 [      54] linear =   139 [      7057] cuts =  0 [   0]
  --> max chng: dpmx=   1.5844E+00 dtmpmx=   1.7396E-01

== TH FLOW =====================================================================
 Step     49 Time=  1.85000E+00 Dt=  5.00000E-02 [y] snes_conv_reason:    3
  newton =   1 [      55] linear =   135 [      7192] cuts =  0 [   0]
  --> max chng: dpmx=   1.5760E+00 dtmpmx=   1.7205E-01

== TH FLOW =====================================================================
 Step     50 Time=  1.90000E+00 Dt=  5.00000E-02 [y] snes_conv_reason:    3
  newton =   1 [      56] linear =   138 [      7330] cuts =  0 [   0]
  --> max chng: dpmx=   1.5692E+00 dtmpmx=   1.6888E-01

== TH FLOW =====================================================================
 Step     51 Time=  1.95000E+00 Dt=  5.00000E-02 [y] snes_conv_reason:    3
  newton =   1 [      57] linear =   138 [      7468] cuts =  0 [   0]
  --> max chng: dpmx=   1.5595E+00 dtmpmx=   1.6507E-01

== TH FLOW =====================================================================
 Step     52 Time=  2.00000E+00 Dt=  5.00000E-02 [y] snes_conv_reason:    3
  newton =   1 [      58] linear =   136 [      7604] cuts =  0 [   0]
  --> max chng: dpmx=   1.5545E+00 dtmpmx=   1.6370E-01

== TH FLOW =====================================================================
 Step     53 Time=  2.05000E+00 Dt=  5.00000E-02 [y] snes_conv_reason:    3
  newton =   1 [      59] linear =   135 [      7739] cuts =  0 [   0]
  --> max chng: dpmx=   1.5465E+00 dtmpmx=   1.6121E-01

== TH FLOW =====================================================================
 Step     54 Time=  2.10000E+00 Dt=  5.00000E-02 [y] snes_conv_reason:    3
  newton =   1 [      60] linear =   131 [      7870] cuts =  0 [   0]
  --> max chng: dpmx=   1.5395E+00 dtmpmx=   1.5772E-01

== TH FLOW =====================================================================
 Step     55 Time=  2.15000E+00 Dt=  5.00000E-02 [y] snes_conv_reason:    3
  newton =   1 [      61] linear =   137 [      8007] cuts =  0 [   0]
  --> max chng: dpmx=   1.5338E+00 dtmpmx=   1.5637E-01

== TH FLOW =====================================================================
 Step     56 Time=  2.20000E+00 Dt=  5.00000E-02 [y] snes_conv_reason:    3
  newton =   1 [      62] linear =   139 [      8146] cuts =  0 [   0]
  --> max chng: dpmx=   1.5261E+00 dtmpmx=   1.5443E-01

== TH FLOW =====================================================================
 Step     57 Time=  2.25000E+00 Dt=  5.00000E-02 [y] snes_conv_reason:    3
  newton =   1 [      63] linear =   139 [      8285] cuts =  0 [   0]
  --> max chng: dpmx=   1.5207E+00 dtmpmx=   1.5157E-01

== TH FLOW =====================================================================
 Step     58 Time=  2.30000E+00 Dt=  5.00000E-02 [y] snes_conv_reason:    3
  newton =   1 [      64] linear =   139 [      8424] cuts =  0 [   0]
  --> max chng: dpmx=   1.5148E+00 dtmpmx=   1.4986E-01

== TH FLOW =====================================================================
 Step     59 Time=  2.35000E+00 Dt=  5.00000E-02 [y] snes_conv_reason:    3
  newton =   1 [      65] linear =   140 [      8564] cuts =  0 [   0]
  --> max chng: dpmx=   1.5090E+00 dtmpmx=   1.4836E-01

== TH FLOW =====================================================================
 Step     60 Time=  2.40000E+00 Dt=  5.00000E-02 [y] snes_conv_reason:    3
  newton =   1 [      66] linear =   140 [      8704] cuts =  0 [   0]
  --> max chng: dpmx=   1.5029E+00 dtmpmx=   1.4602E-01

== TH FLOW =====================================================================
 Step     61 Time=  2.45000E+00 Dt=  5.00000E-02 [y] snes_conv_reason:    3
  newton =   1 [      67] linear =   133 [      8837] cuts =  0 [   0]
  --> max chng: dpmx=   1.4969E+00 dtmpmx=   1.4403E-01

== TH FLOW =====================================================================
 Step     62 Time=  2.50000E+00 Dt=  5.00000E-02 [y] snes_conv_reason:    3
  newton =   1 [      68] linear =   135 [      8972] cuts =  0 [   0]
  --> max chng: dpmx=   1.4923E+00 dtmpmx=   1.4288E-01

== TH FLOW =====================================================================
 Step     63 Time=  2.55000E+00 Dt=  5.00000E-02 [y] snes_conv_reason:    3
  newton =   1 [      69] linear =   140 [      9112] cuts =  0 [   0]
  --> max chng: dpmx=   1.4857E+00 dtmpmx=   1.4098E-01

== TH FLOW =====================================================================
 Step     64 Time=  2.60000E+00 Dt=  5.00000E-02 [y] snes_conv_reason:    3
  newton =   1 [      70] linear =   138 [      9250] cuts =  0 [   0]
  --> max chng: dpmx=   1.4814E+00 dtmpmx=   1.3876E-01

== TH FLOW =====================================================================
 Step     65 Time=  2.65000E+00 Dt=  5.00000E-02 [y] snes_conv_reason:    3
  newton =   1 [      71] linear =   135 [      9385] cuts =  0 [   0]
  --> max chng: dpmx=   1.4763E+00 dtmpmx=   1.3791E-01

== TH FLOW =====================================================================
 Step     66 Time=  2.70000E+00 Dt=  5.00000E-02 [y] snes_conv_reason:    3
  newton =   1 [      72] linear =   136 [      9521] cuts =  0 [   0]
  --> max chng: dpmx=   1.4704E+00 dtmpmx=   1.3636E-01

== TH FLOW =====================================================================
 Step     67 Time=  2.75000E+00 Dt=  5.00000E-02 [y] snes_conv_reason:    3
  newton =   1 [      73] linear =   138 [      9659] cuts =  0 [   0]
  --> max chng: dpmx=   1.4662E+00 dtmpmx=   1.3417E-01

== TH FLOW =====================================================================
 Step     68 Time=  2.80000E+00 Dt=  5.00000E-02 [y] snes_conv_reason:    3
  newton =   1 [      74] linear =   137 [      9796] cuts =  0 [   0]
  --> max chng: dpmx=   1.4604E+00 dtmpmx=   1.3335E-01

== TH FLOW =====================================================================
 Step     69 Time=  2.85000E+00 Dt=  5.00000E-02 [y] snes_conv_reason:    3
  newton =   1 [      75] linear =   139 [      9935] cuts =  0 [   0]
  --> max chng: dpmx=   1.4565E+00 dtmpmx=   1.3211E-01

== TH FLOW =====================================================================
 Step     70 Time=  2.90000E+00 Dt=  5.00000E-02 [y] snes_conv_reason:    3
  newton =   1 [      76] linear =   137 [     10072] cuts =  0 [   0]
  --> max chng: dpmx=   1.4515E+00 dtmpmx=   1.3026E-01

== TH FLOW =====================================================================
 Step     71 Time=  2.95000E+00 Dt=  5.00000E-02 [y] snes_conv_reason:    3
  newton =   1 [      77] linear =   138 [     10210] cuts =  0 [   0]
  --> max chng: dpmx=   1.4468E+00 dtmpmx=   1.2917E-01

== TH FLOW =====================================================================
 Step     72 Time=  3.00000E+00 Dt=  5.00000E-02 [y] snes_conv_reason:    3
  newton =   1 [      78] linear =   138 [     10348] cuts =  0 [   0]
  --> max chng: dpmx=   1.4429E+00 dtmpmx=   1.2818E-01

== TH FLOW =====================================================================
 Step     73 Time=  3.05000E+00 Dt=  5.00000E-02 [y] snes_conv_reason:    3
  newton =   1 [      79] linear =   139 [     10487] cuts =  0 [   0]
  --> max chng: dpmx=   1.4373E+00 dtmpmx=   1.2663E-01

== TH FLOW =====================================================================
 Step     74 Time=  3.10000E+00 Dt=  5.00000E-02 [y] snes_conv_reason:    3
  newton =   1 [      80] linear =   136 [     10623] cuts =  0 [   0]
  --> max chng: dpmx=   1.4338E+00 dtmpmx=   1.2530E-01

== TH FLOW =====================================================================
 Step     75 Time=  3.15000E+00 Dt=  5.00000E-02 [y] snes_conv_reason:    3
  newton =   1 [      81] linear =   133 [     10756] cuts =  0 [   0]
  --> max chng: dpmx=   1.4293E+00 dtmpmx=   1.2453E-01

== TH FLOW =====================================================================
 Step     76 Time=  3.20000E+00 Dt=  5.00000E-02 [y] snes_conv_reason:    3
  newton =   1 [      82] linear =   128 [     10884] cuts =  0 [   0]
  --> max chng: dpmx=   1.4244E+00 dtmpmx=   1.2323E-01

== TH FLOW =====================================================================
 Step     77 Time=  3.25000E+00 Dt=  5.00000E-02 [y] snes_conv_reason:    3
  newton =   1 [      83] linear =   133 [     11017] cuts =  0 [   0]
  --> max chng: dpmx=   1.4210E+00 dtmpmx=   1.2171E-01

== TH FLOW =====================================================================
 Step     78 Time=  3.30000E+00 Dt=  5.00000E-02 [y] snes_conv_reason:    3
  newton =   1 [      84] linear =   136 [     11153] cuts =  0 [   0]
  --> max chng: dpmx=   1.4165E+00 dtmpmx=   1.2112E-01

== TH FLOW =====================================================================
 Step     79 Time=  3.35000E+00 Dt=  5.00000E-02 [y] snes_conv_reason:    3
  newton =   1 [      85] linear =   136 [     11289] cuts =  0 [   0]
  --> max chng: dpmx=   1.4126E+00 dtmpmx=   1.2005E-01

== TH FLOW =====================================================================
 Step     80 Time=  3.40000E+00 Dt=  5.00000E-02 [y] snes_conv_reason:    3
  newton =   1 [      86] linear =   132 [     11421] cuts =  0 [   0]
  --> max chng: dpmx=   1.4083E+00 dtmpmx=   1.1852E-01

== TH FLOW =====================================================================
 Step     81 Time=  3.45000E+00 Dt=  5.00000E-02 [y] snes_conv_reason:    3
  newton =   1 [      87] linear =   134 [     11555] cuts =  0 [   0]
  --> max chng: dpmx=   1.4043E+00 dtmpmx=   1.1794E-01

== TH FLOW =====================================================================
 Step     82 Time=  3.50000E+00 Dt=  5.00000E-02 [y] snes_conv_reason:    3
  newton =   1 [      88] linear =   136 [     11691] cuts =  0 [   0]
  --> max chng: dpmx=   1.4005E+00 dtmpmx=   1.1706E-01

== TH FLOW =====================================================================
 Step     83 Time=  3.55000E+00 Dt=  5.00000E-02 [y] snes_conv_reason:    3
  newton =   1 [      89] linear =   135 [     11826] cuts =  0 [   0]
  --> max chng: dpmx=   1.3966E+00 dtmpmx=   1.1574E-01

== TH FLOW =====================================================================
 Step     84 Time=  3.60000E+00 Dt=  5.00000E-02 [y] snes_conv_reason:    3
  newton =   1 [      90] linear =   134 [     11960] cuts =  0 [   0]
  --> max chng: dpmx=   1.3928E+00 dtmpmx=   1.1495E-01

== TH FLOW =====================================================================
 Step     85 Time=  3.65000E+00 Dt=  5.00000E-02 [y] snes_conv_reason:    3
  newton =   1 [      91] linear =   135 [     12095] cuts =  0 [   0]
  --> max chng: dpmx=   1.3892E+00 dtmpmx=   1.1423E-01

== TH FLOW =====================================================================
 Step     86 Time=  3.70000E+00 Dt=  5.00000E-02 [y] snes_conv_reason:    3
  newton =   1 [      92] linear =   131 [     12226] cuts =  0 [   0]
  --> max chng: dpmx=   1.3845E+00 dtmpmx=   1.1311E-01

== TH FLOW =====================================================================
 Step     87 Time=  3.75000E+00 Dt=  5.00000E-02 [y] snes_conv_reason:    3
  newton =   1 [      93] linear =   135 [     12361] cuts =  0 [   0]
  --> max chng: dpmx=   1.3812E+00 dtmpmx=   1.1213E-01

== TH FLOW =====================================================================
 Step     88 Time=  3.80000E+00 Dt=  5.00000E-02 [y] snes_conv_reason:    3
  newton =   1 [      94] linear =   129 [     12490] cuts =  0 [   0]
  --> max chng: dpmx=   1.3777E+00 dtmpmx=   1.1157E-01

== TH FLOW =====================================================================
 Step     89 Time=  3.85000E+00 Dt=  5.00000E-02 [y] snes_conv_reason:    3
  newton =   1 [      95] linear =   136 [     12626] cuts =  0 [   0]
  --> max chng: dpmx=   1.3740E+00 dtmpmx=   1.1062E-01

== TH FLOW =====================================================================
 Step     90 Time=  3.90000E+00 Dt=  5.00000E-02 [y] snes_conv_reason:    3
  newton =   1 [      96] linear =   125 [     12751] cuts =  0 [   0]
  --> max chng: dpmx=   1.3705E+00 dtmpmx=   1.0948E-01

== TH FLOW =====================================================================
 Step     91 Time=  3.95000E+00 Dt=  5.00000E-02 [y] snes_conv_reason:    3
  newton =   1 [      97] linear =   137 [     12888] cuts =  0 [   0]
  --> max chng: dpmx=   1.3665E+00 dtmpmx=   1.0904E-01

== TH FLOW =====================================================================
 Step     92 Time=  4.00000E+00 Dt=  5.00000E-02 [y] snes_conv_reason:    3
  newton =   1 [      98] linear =   129 [     13017] cuts =  0 [   0]
  --> max chng: dpmx=   1.3628E+00 dtmpmx=   1.0824E-01

== TH FLOW =====================================================================
 Step     93 Time=  4.05000E+00 Dt=  5.00000E-02 [y] snes_conv_reason:    3
  newton =   1 [      99] linear =   136 [     13153] cuts =  0 [   0]
  --> max chng: dpmx=   1.3602E+00 dtmpmx=   1.0709E-01

== TH FLOW =====================================================================
 Step     94 Time=  4.10000E+00 Dt=  5.00000E-02 [y] snes_conv_reason:    3
  newton =   1 [     100] linear =   139 [     13292] cuts =  0 [   0]
  --> max chng: dpmx=   1.3556E+00 dtmpmx=   1.0664E-01

== TH FLOW =====================================================================
 Step     95 Time=  4.15000E+00 Dt=  5.00000E-02 [y] snes_conv_reason:    3
  newton =   1 [     101] linear =   133 [     13425] cuts =  0 [   0]
  --> max chng: dpmx=   1.3533E+00 dtmpmx=   1.0598E-01

== TH FLOW =====================================================================
 Step     96 Time=  4.20000E+00 Dt=  5.00000E-02 [y] snes_conv_reason:    3
  newton =   1 [     102] linear =   134 [     13559] cuts =  0 [   0]
  --> max chng: dpmx=   1.3491E+00 dtmpmx=   1.0498E-01

== TH FLOW =====================================================================
 Step     97 Time=  4.25000E+00 Dt=  5.00000E-02 [y] snes_conv_reason:    3
  newton =   1 [     103] linear =   136 [     13695] cuts =  0 [   0]
  --> max chng: dpmx=   1.3456E+00 dtmpmx=   1.0436E-01

== TH FLOW =====================================================================
 Step     98 Time=  4.30000E+00 Dt=  5.00000E-02 [y] snes_conv_reason:    3
  newton =   1 [     104] linear =   134 [     13829] cuts =  0 [   0]
  --> max chng: dpmx=   1.3426E+00 dtmpmx=   1.0382E-01

== TH FLOW =====================================================================
 Step     99 Time=  4.35000E+00 Dt=  5.00000E-02 [y] snes_conv_reason:    3
  newton =   1 [     105] linear =   132 [     13961] cuts =  0 [   0]
  --> max chng: dpmx=   1.3386E+00 dtmpmx=   1.0295E-01

== TH FLOW =====================================================================
 Step    100 Time=  4.40000E+00 Dt=  5.00000E-02 [y] snes_conv_reason:    3
  newton =   1 [     106] linear =   130 [     14091] cuts =  0 [   0]
  --> max chng: dpmx=   1.3353E+00 dtmpmx=   1.0219E-01

== TH FLOW =====================================================================
 Step    101 Time=  4.45000E+00 Dt=  5.00000E-02 [y] snes_conv_reason:    3
  newton =   1 [     107] linear =   138 [     14229] cuts =  0 [   0]
  --> max chng: dpmx=   1.3329E+00 dtmpmx=   1.0175E-01

== TH FLOW =====================================================================
 Step    102 Time=  4.50000E+00 Dt=  5.00000E-02 [y] snes_conv_reason:    3
  newton =   1 [     108] linear =   137 [     14366] cuts =  0 [   0]
  --> max chng: dpmx=   1.3291E+00 dtmpmx=   1.0101E-01

== TH FLOW =====================================================================
 Step    103 Time=  4.55000E+00 Dt=  5.00000E-02 [y] snes_conv_reason:    3
  newton =   1 [     109] linear =   137 [     14503] cuts =  0 [   0]
  --> max chng: dpmx=   1.3256E+00 dtmpmx=   1.0012E-01

== TH FLOW =====================================================================
 Step    104 Time=  4.60000E+00 Dt=  5.00000E-02 [y] snes_conv_reason:    3
  newton =   1 [     110] linear =   137 [     14640] cuts =  0 [   0]
  --> max chng: dpmx=   1.3220E+00 dtmpmx=   9.9776E-02

== TH FLOW =====================================================================
 Step    105 Time=  4.65000E+00 Dt=  5.00000E-02 [y] snes_conv_reason:    3
  newton =   1 [     111] linear =   138 [     14778] cuts =  0 [   0]
  --> max chng: dpmx=   1.3195E+00 dtmpmx=   9.9144E-02

== TH FLOW =====================================================================
 Step    106 Time=  4.70000E+00 Dt=  5.00000E-02 [y] snes_conv_reason:    3
  newton =   1 [     112] linear =   137 [     14915] cuts =  0 [   0]
  --> max chng: dpmx=   1.3162E+00 dtmpmx=   9.8236E-02

== TH FLOW =====================================================================
 Step    107 Time=  4.75000E+00 Dt=  5.00000E-02 [y] snes_conv_reason:    3
  newton =   1 [     113] linear =   132 [     15047] cuts =  0 [   0]
  --> max chng: dpmx=   1.3123E+00 dtmpmx=   9.7881E-02

== TH FLOW =====================================================================
 Step    108 Time=  4.80000E+00 Dt=  5.00000E-02 [y] snes_conv_reason:    3
  newton =   1 [     114] linear =   133 [     15180] cuts =  0 [   0]
  --> max chng: dpmx=   1.3102E+00 dtmpmx=   9.7350E-02

== TH FLOW =====================================================================
 Step    109 Time=  4.85000E+00 Dt=  5.00000E-02 [y] snes_conv_reason:    3
  newton =   1 [     115] linear =   135 [     15315] cuts =  0 [   0]
  --> max chng: dpmx=   1.3066E+00 dtmpmx=   9.6553E-02

== TH FLOW =====================================================================
 Step    110 Time=  4.90000E+00 Dt=  5.00000E-02 [y] snes_conv_reason:    3
  newton =   1 [     116] linear =   137 [     15452] cuts =  0 [   0]
  --> max chng: dpmx=   1.3030E+00 dtmpmx=   9.6063E-02

== TH FLOW =====================================================================
 Step    111 Time=  4.95000E+00 Dt=  5.00000E-02 [y] snes_conv_reason:    3
  newton =   1 [     117] linear =   133 [     15585] cuts =  0 [   0]
  --> max chng: dpmx=   1.3007E+00 dtmpmx=   9.5623E-02

== TH FLOW =====================================================================
 Step    112 Time=  5.00000E+00 Dt=  5.00000E-02 [y] snes_conv_reason:    3
  newton =   1 [     118] linear =   137 [     15722] cuts =  0 [   0]
  --> max chng: dpmx=   1.2967E+00 dtmpmx=   9.4927E-02

== TH FLOW =====================================================================
 Step    113 Time=  5.05000E+00 Dt=  5.00000E-02 [y] snes_conv_reason:    3
  newton =   1 [     119] linear =   135 [     15857] cuts =  0 [   0]
  --> max chng: dpmx=   1.2941E+00 dtmpmx=   9.4316E-02

== TH FLOW =====================================================================
 Step    114 Time=  5.10000E+00 Dt=  5.00000E-02 [y] snes_conv_reason:    3
  newton =   1 [     120] linear =   126 [     15983] cuts =  0 [   0]
  --> max chng: dpmx=   1.2909E+00 dtmpmx=   9.3959E-02

== TH FLOW =====================================================================
 Step    115 Time=  5.15000E+00 Dt=  5.00000E-02 [y] snes_conv_reason:    3
  newton =   1 [     121] linear =   134 [     16117] cuts =  0 [   0]
  --> max chng: dpmx=   1.2880E+00 dtmpmx=   9.3356E-02

== TH FLOW =====================================================================
 Step    116 Time=  5.20000E+00 Dt=  5.00000E-02 [y] snes_conv_reason:    3
  newton =   1 [     122] linear =   134 [     16251] cuts =  0 [   0]
  --> max chng: dpmx=   1.2848E+00 dtmpmx=   9.2636E-02

== TH FLOW =====================================================================
 Step    117 Time=  5.25000E+00 Dt=  5.00000E-02 [y] snes_conv_reason:    3
  newton =   1 [     123] linear =   132 [     16383] cuts =  0 [   0]
  --> max chng: dpmx=   1.2816E+00 dtmpmx=   9.2355E-02

== TH FLOW =====================================================================
 Step    118 Time=  5.30000E+00 Dt=  5.00000E-02 [y] snes_conv_reason:    3
  newton =   1 [     124] linear =   136 [     16519] cuts =  0 [   0]
  --> max chng: dpmx=   1.2786E+00 dtmpmx=   9.1837E-02

== TH FLOW =====================================================================
 Step    119 Time=  5.35000E+00 Dt=  5.00000E-02 [y] snes_conv_reason:    3
  newton =   1 [     125] linear =   134 [     16653] cuts =  0 [   0]
  --> max chng: dpmx=   1.2758E+00 dtmpmx=   9.1092E-02

== TH FLOW =====================================================================
 Step    120 Time=  5.40000E+00 Dt=  5.00000E-02 [y] snes_conv_reason:    3
  newton =   1 [     126] linear =   133 [     16786] cuts =  0 [   0]
  --> max chng: dpmx=   1.2730E+00 dtmpmx=   9.0806E-02

== TH FLOW =====================================================================
 Step    121 Time=  5.45000E+00 Dt=  5.00000E-02 [y] snes_conv_reason:    3
  newton =   1 [     127] linear =   136 [     16922] cuts =  0 [   0]
  --> max chng: dpmx=   1.2697E+00 dtmpmx=   9.0366E-02

== TH FLOW =====================================================================
 Step    122 Time=  5.50000E+00 Dt=  5.00000E-02 [y] snes_conv_reason:    3
  newton =   1 [     128] linear =   135 [     17057] cuts =  0 [   0]
  --> max chng: dpmx=   1.2669E+00 dtmpmx=   8.9707E-02

== TH FLOW =====================================================================
 Step    123 Time=  5.55000E+00 Dt=  5.00000E-02 [y] snes_conv_reason:    3
  newton =   1 [     129] linear =   135 [     17192] cuts =  0 [   0]
  --> max chng: dpmx=   1.2636E+00 dtmpmx=   8.9310E-02

== TH FLOW =====================================================================
 Step    124 Time=  5.60000E+00 Dt=  5.00000E-02 [y] snes_conv_reason:    3
  newton =   1 [     130] linear =   134 [     17326] cuts =  0 [   0]
  --> max chng: dpmx=   1.2611E+00 dtmpmx=   8.8942E-02

== TH FLOW =====================================================================
 Step    125 Time=  5.65000E+00 Dt=  5.00000E-02 [y] snes_conv_reason:    3
  newton =   1 [     131] linear =   132 [     17458] cuts =  0 [   0]
  --> max chng: dpmx=   1.2581E+00 dtmpmx=   8.8363E-02

== TH FLOW =====================================================================
 Step    126 Time=  5.70000E+00 Dt=  5.00000E-02 [y] snes_conv_reason:    3
  newton =   1 [     132] linear =   134 [     17592] cuts =  0 [   0]
  --> max chng: dpmx=   1.2551E+00 dtmpmx=   8.7863E-02

== TH FLOW =====================================================================
 Step    127 Time=  5.75000E+00 Dt=  5.00000E-02 [y] snes_conv_reason:    3
  newton =   1 [     133] linear =   133 [     17725] cuts =  0 [   0]
  --> max chng: dpmx=   1.2522E+00 dtmpmx=   8.7562E-02

== TH FLOW =====================================================================
 Step    128 Time=  5.80000E+00 Dt=  5.00000E-02 [y] snes_conv_reason:    3
  newton =   1 [     134] linear =   129 [     17854] cuts =  0 [   0]
  --> max chng: dpmx=   1.2486E+00 dtmpmx=   8.7056E-02

== TH FLOW =====================================================================
 Step    129 Time=  5.85000E+00 Dt=  5.00000E-02 [y] snes_conv_reason:    3
  newton =   1 [     135] linear =   131 [     17985] cuts =  0 [   0]
  --> max chng: dpmx=   1.2470E+00 dtmpmx=   8.6464E-02

== TH FLOW =====================================================================
 Step    130 Time=  5.90000E+00 Dt=  5.00000E-02 [y] snes_conv_reason:    3
  newton =   1 [     136] linear =   130 [     18115] cuts =  0 [   0]
  --> max chng: dpmx=   1.2435E+00 dtmpmx=   8.6223E-02

== TH FLOW =====================================================================
 Step    131 Time=  5.95000E+00 Dt=  5.00000E-02 [y] snes_conv_reason:    3
  newton =   1 [     137] linear =   137 [     18252] cuts =  0 [   0]
  --> max chng: dpmx=   1.2402E+00 dtmpmx=   8.5785E-02

== TH FLOW =====================================================================
 Step    132 Time=  6.00000E+00 Dt=  5.00000E-02 [y] snes_conv_reason:    3
  newton =   1 [     138] linear =   136 [     18388] cuts =  0 [   0]
  --> max chng: dpmx=   1.2382E+00 dtmpmx=   8.5157E-02

== TH FLOW =====================================================================
 Step    133 Time=  6.05000E+00 Dt=  5.00000E-02 [y] snes_conv_reason:    3
  newton =   1 [     139] linear =   135 [     18523] cuts =  0 [   0]
  --> max chng: dpmx=   1.2347E+00 dtmpmx=   8.4925E-02

== TH FLOW =====================================================================
 Step    134 Time=  6.10000E+00 Dt=  5.00000E-02 [y] snes_conv_reason:    3
  newton =   1 [     140] linear =   131 [     18654] cuts =  0 [   0]
  --> max chng: dpmx=   1.2320E+00 dtmpmx=   8.4550E-02

== TH FLOW =====================================================================
 Step    135 Time=  6.15000E+00 Dt=  5.00000E-02 [y] snes_conv_reason:    3
  newton =   1 [     141] linear =   137 [     18791] cuts =  0 [   0]
  --> max chng: dpmx=   1.2295E+00 dtmpmx=   8.3990E-02

== TH FLOW =====================================================================
 Step    136 Time=  6.20000E+00 Dt=  5.00000E-02 [y] snes_conv_reason:    3
  newton =   1 [     142] linear =   132 [     18923] cuts =  0 [   0]
  --> max chng: dpmx=   1.2262E+00 dtmpmx=   8.3664E-02

== TH FLOW =====================================================================
 Step    137 Time=  6.25000E+00 Dt=  5.00000E-02 [y] snes_conv_reason:    3
  newton =   1 [     143] linear =   133 [     19056] cuts =  0 [   0]
  --> max chng: dpmx=   1.2233E+00 dtmpmx=   8.3347E-02

== TH FLOW =====================================================================
 Step    138 Time=  6.30000E+00 Dt=  5.00000E-02 [y] snes_conv_reason:    3
  newton =   1 [     144] linear =   133 [     19189] cuts =  0 [   0]
  --> max chng: dpmx=   1.2213E+00 dtmpmx=   8.2852E-02

== TH FLOW =====================================================================
 Step    139 Time=  6.35000E+00 Dt=  5.00000E-02 [y] snes_conv_reason:    3
  newton =   1 [     145] linear =   133 [     19322] cuts =  0 [   0]
  --> max chng: dpmx=   1.2176E+00 dtmpmx=   8.2440E-02

== TH FLOW =====================================================================
 Step    140 Time=  6.40000E+00 Dt=  5.00000E-02 [y] snes_conv_reason:    3
  newton =   1 [     146] linear =   133 [     19455] cuts =  0 [   0]
  --> max chng: dpmx=   1.2154E+00 dtmpmx=   8.2177E-02

== TH FLOW =====================================================================
 Step    141 Time=  6.45000E+00 Dt=  5.00000E-02 [y] snes_conv_reason:    3
  newton =   1 [     147] linear =   132 [     19587] cuts =  0 [   0]
  --> max chng: dpmx=   1.2125E+00 dtmpmx=   8.1742E-02

== TH FLOW =====================================================================
 Step    142 Time=  6.50000E+00 Dt=  5.00000E-02 [y] snes_conv_reason:    3
  newton =   1 [     148] linear =   128 [     19715] cuts =  0 [   0]
  --> max chng: dpmx=   1.2096E+00 dtmpmx=   8.1250E-02

== TH FLOW =====================================================================
 Step    143 Time=  6.55000E+00 Dt=  5.00000E-02 [y] snes_conv_reason:    3
  newton =   1 [     149] linear =   125 [     19840] cuts =  0 [   0]
  --> max chng: dpmx=   1.2066E+00 dtmpmx=   8.1038E-02

== TH FLOW =====================================================================
 Step    144 Time=  6.60000E+00 Dt=  5.00000E-02 [y] snes_conv_reason:    3
  newton =   1 [     150] linear =   132 [     19972] cuts =  0 [   0]
  --> max chng: dpmx=   1.2045E+00 dtmpmx=   8.0658E-02

== TH FLOW =====================================================================
 Step    145 Time=  6.65000E+00 Dt=  5.00000E-02 [y] snes_conv_reason:    3
  newton =   1 [     151] linear =   133 [     20105] cuts =  0 [   0]
  --> max chng: dpmx=   1.2012E+00 dtmpmx=   8.0116E-02

== TH FLOW =====================================================================
 Step    146 Time=  6.70000E+00 Dt=  5.00000E-02 [y] snes_conv_reason:    3
  newton =   1 [     152] linear =   134 [     20239] cuts =  0 [   0]
  --> max chng: dpmx=   1.1988E+00 dtmpmx=   7.9927E-02

== TH FLOW =====================================================================
 Step    147 Time=  6.75000E+00 Dt=  5.00000E-02 [y] snes_conv_reason:    3
  newton =   1 [     153] linear =   132 [     20371] cuts =  0 [   0]
  --> max chng: dpmx=   1.1955E+00 dtmpmx=   7.9600E-02

== TH FLOW =====================================================================
 Step    148 Time=  6.80000E+00 Dt=  5.00000E-02 [y] snes_conv_reason:    3
  newton =   1 [     154] linear =   133 [     20504] cuts =  0 [   0]
  --> max chng: dpmx=   1.1935E+00 dtmpmx=   7.9114E-02

== TH FLOW =====================================================================
 Step    149 Time=  6.85000E+00 Dt=  5.00000E-02 [y] snes_conv_reason:    3
  newton =   1 [     155] linear =   129 [     20633] cuts =  0 [   0]
  --> max chng: dpmx=   1.1903E+00 dtmpmx=   7.8845E-02

== TH FLOW =====================================================================
 Step    150 Time=  6.90000E+00 Dt=  5.00000E-02 [y] snes_conv_reason:    3
  newton =   1 [     156] linear =   136 [     20769] cuts =  0 [   0]
  --> max chng: dpmx=   1.1876E+00 dtmpmx=   7.8566E-02

== TH FLOW =====================================================================
 Step    151 Time=  6.95000E+00 Dt=  5.00000E-02 [y] snes_conv_reason:    3
  newton =   1 [     157] linear =   136 [     20905] cuts =  0 [   0]
  --> max chng: dpmx=   1.1851E+00 dtmpmx=   7.8134E-02

== TH FLOW =====================================================================
 Step    152 Time=  7.00000E+00 Dt=  5.00000E-02 [y] snes_conv_reason:    3
  newton =   1 [     158] linear =   130 [     21035] cuts =  0 [   0]
  --> max chng: dpmx=   1.1825E+00 dtmpmx=   7.7791E-02

== TH FLOW =====================================================================
 Step    153 Time=  7.05000E+00 Dt=  5.00000E-02 [y] snes_conv_reason:    3
  newton =   1 [     159] linear =   129 [     21164] cuts =  0 [   0]
  --> max chng: dpmx=   1.1789E+00 dtmpmx=   7.7557E-02

== TH FLOW =====================================================================
 Step    154 Time=  7.10000E+00 Dt=  5.00000E-02 [y] snes_conv_reason:    3
  newton =   1 [     160] linear =   137 [     21301] cuts =  0 [   0]
  --> max chng: dpmx=   1.1775E+00 dtmpmx=   7.7175E-02

== TH FLOW =====================================================================
 Step    155 Time=  7.15000E+00 Dt=  5.00000E-02 [y] snes_conv_reason:    3
  newton =   1 [     161] linear =   136 [     21437] cuts =  0 [   0]
  --> max chng: dpmx=   1.1743E+00 dtmpmx=   7.6762E-02

== TH FLOW =====================================================================
 Step    156 Time=  7.20000E+00 Dt=  5.00000E-02 [y] snes_conv_reason:    3
  newton =   1 [     162] linear =   137 [     21574] cuts =  0 [   0]
  --> max chng: dpmx=   1.1714E+00 dtmpmx=   7.6571E-02

== TH FLOW =====================================================================
 Step    157 Time=  7.25000E+00 Dt=  5.00000E-02 [y] snes_conv_reason:    3
  newton =   1 [     163] linear =   132 [     21706] cuts =  0 [   0]
  --> max chng: dpmx=   1.1688E+00 dtmpmx=   7.6235E-02

== TH FLOW =====================================================================
 Step    158 Time=  7.30000E+00 Dt=  5.00000E-02 [y] snes_conv_reason:    3
  newton =   1 [     164] linear =   134 [     21840] cuts =  0 [   0]
  --> max chng: dpmx=   1.1664E+00 dtmpmx=   7.5759E-02

== TH FLOW =====================================================================
 Step    159 Time=  7.35000E+00 Dt=  5.00000E-02 [y] snes_conv_reason:    3
  newton =   1 [     165] linear =   134 [     21974] cuts =  0 [   0]
  --> max chng: dpmx=   1.1636E+00 dtmpmx=   7.5607E-02

== TH FLOW =====================================================================
 Step    160 Time=  7.40000E+00 Dt=  5.00000E-02 [y] snes_conv_reason:    3
  newton =   1 [     166] linear =   130 [     22104] cuts =  0 [   0]
  --> max chng: dpmx=   1.1611E+00 dtmpmx=   7.5315E-02

== TH FLOW =====================================================================
 Step    161 Time=  7.45000E+00 Dt=  5.00000E-02 [y] snes_conv_reason:    3
  newton =   1 [     167] linear =   134 [     22238] cuts =  0 [   0]
  --> max chng: dpmx=   1.1578E+00 dtmpmx=   7.4886E-02

== TH FLOW =====================================================================
 Step    162 Time=  7.50000E+00 Dt=  5.00000E-02 [y] snes_conv_reason:    3
  newton =   1 [     168] linear =   133 [     22371] cuts =  0 [   0]
  --> max chng: dpmx=   1.1560E+00 dtmpmx=   7.4665E-02

== TH FLOW =====================================================================
 Step    163 Time=  7.55000E+00 Dt=  5.00000E-02 [y] snes_conv_reason:    3
  newton =   1 [     169] linear =   133 [     22504] cuts =  0 [   0]
  --> max chng: dpmx=   1.1528E+00 dtmpmx=   7.4414E-02

== TH FLOW =====================================================================
 Step    164 Time=  7.60000E+00 Dt=  5.00000E-02 [y] snes_conv_reason:    3
  newton =   1 [     170] linear =   133 [     22637] cuts =  0 [   0]
  --> max chng: dpmx=   1.1502E+00 dtmpmx=   7.4030E-02

== TH FLOW =====================================================================
 Step    165 Time=  7.65000E+00 Dt=  5.00000E-02 [y] snes_conv_reason:    3
  newton =   1 [     171] linear =   133 [     22770] cuts =  0 [   0]
  --> max chng: dpmx=   1.1476E+00 dtmpmx=   7.3744E-02

== TH FLOW =====================================================================
 Step    166 Time=  7.70000E+00 Dt=  5.00000E-02 [y] snes_conv_reason:    3
  newton =   1 [     172] linear =   127 [     22897] cuts =  0 [   0]
  --> max chng: dpmx=   1.1451E+00 dtmpmx=   7.3532E-02

== TH FLOW =====================================================================
 Step    167 Time=  7.75000E+00 Dt=  5.00000E-02 [y] snes_conv_reason:    3
  newton =   1 [     173] linear =   131 [     23028] cuts =  0 [   0]
  --> max chng: dpmx=   1.1426E+00 dtmpmx=   7.3190E-02

== TH FLOW =====================================================================
 Step    168 Time=  7.80000E+00 Dt=  5.00000E-02 [y] snes_conv_reason:    3
  newton =   1 [     174] linear =   134 [     23162] cuts =  0 [   0]
  --> max chng: dpmx=   1.1399E+00 dtmpmx=   7.2843E-02

== TH FLOW =====================================================================
 Step    169 Time=  7.85000E+00 Dt=  5.00000E-02 [y] snes_conv_reason:    3
  newton =   1 [     175] linear =   136 [     23298] cuts =  0 [   0]
  --> max chng: dpmx=   1.1363E+00 dtmpmx=   7.2667E-02

== TH FLOW =====================================================================
 Step    170 Time=  7.90000E+00 Dt=  5.00000E-02 [y] snes_conv_reason:    3
  newton =   1 [     176] linear =   131 [     23429] cuts =  0 [   0]
  --> max chng: dpmx=   1.1354E+00 dtmpmx=   7.2365E-02

== TH FLOW =====================================================================
 Step    171 Time=  7.95000E+00 Dt=  5.00000E-02 [y] snes_conv_reason:    3
  newton =   1 [     177] linear =   129 [     23558] cuts =  0 [   0]
  --> max chng: dpmx=   1.1317E+00 dtmpmx=   7.1961E-02

== TH FLOW =====================================================================
 Step    172 Time=  8.00000E+00 Dt=  5.00000E-02 [y] snes_conv_reason:    3
  newton =   1 [     178] linear =   134 [     23692] cuts =  0 [   0]
  --> max chng: dpmx=   1.1293E+00 dtmpmx=   7.1820E-02

== TH FLOW =====================================================================
 Step    173 Time=  8.05000E+00 Dt=  5.00000E-02 [y] snes_conv_reason:    3
  newton =   1 [     179] linear =   133 [     23825] cuts =  0 [   0]
  --> max chng: dpmx=   1.1268E+00 dtmpmx=   7.1556E-02

== TH FLOW =====================================================================
 Step    174 Time=  8.10000E+00 Dt=  5.00000E-02 [y] snes_conv_reason:    3
  newton =   1 [     180] linear =   133 [     23958] cuts =  0 [   0]
  --> max chng: dpmx=   1.1241E+00 dtmpmx=   7.1171E-02

== TH FLOW =====================================================================
 Step    175 Time=  8.15000E+00 Dt=  5.00000E-02 [y] snes_conv_reason:    3
  newton =   1 [     181] linear =   135 [     24093] cuts =  0 [   0]
  --> max chng: dpmx=   1.1216E+00 dtmpmx=   7.0990E-02

== TH FLOW =====================================================================
 Step    176 Time=  8.20000E+00 Dt=  5.00000E-02 [y] snes_conv_reason:    3
  newton =   1 [     182] linear =   134 [     24227] cuts =  0 [   0]
  --> max chng: dpmx=   1.1189E+00 dtmpmx=   7.0761E-02

== TH FLOW =====================================================================
 Step    177 Time=  8.25000E+00 Dt=  5.00000E-02 [y] snes_conv_reason:    3
  newton =   1 [     183] linear =   130 [     24357] cuts =  0 [   0]
  --> max chng: dpmx=   1.1164E+00 dtmpmx=   7.0415E-02

== TH FLOW =====================================================================
 Step    178 Time=  8.30000E+00 Dt=  5.00000E-02 [y] snes_conv_reason:    3
  newton =   1 [     184] linear =   135 [     24492] cuts =  0 [   0]
  --> max chng: dpmx=   1.1137E+00 dtmpmx=   7.0176E-02

== TH FLOW =====================================================================
 Step    179 Time=  8.35000E+00 Dt=  5.00000E-02 [y] snes_conv_reason:    3
  newton =   1 [     185] linear =   131 [     24623] cuts =  0 [   0]
  --> max chng: dpmx=   1.1114E+00 dtmpmx=   6.9981E-02

== TH FLOW =====================================================================
 Step    180 Time=  8.40000E+00 Dt=  5.00000E-02 [y] snes_conv_reason:    3
  newton =   1 [     186] linear =   133 [     24756] cuts =  0 [   0]
  --> max chng: dpmx=   1.1090E+00 dtmpmx=   6.9671E-02

== TH FLOW =====================================================================
 Step    181 Time=  8.45000E+00 Dt=  5.00000E-02 [y] snes_conv_reason:    3
  newton =   1 [     187] linear =   133 [     24889] cuts =  0 [   0]
  --> max chng: dpmx=   1.1061E+00 dtmpmx=   6.9378E-02

== TH FLOW =====================================================================
 Step    182 Time=  8.50000E+00 Dt=  5.00000E-02 [y] snes_conv_reason:    3
  newton =   1 [     188] linear =   131 [     25020] cuts =  0 [   0]
  --> max chng: dpmx=   1.1036E+00 dtmpmx=   6.9215E-02

== TH FLOW =====================================================================
 Step    183 Time=  8.55000E+00 Dt=  5.00000E-02 [y] snes_conv_reason:    3
  newton =   1 [     189] linear =   135 [     25155] cuts =  0 [   0]
  --> max chng: dpmx=   1.1007E+00 dtmpmx=   6.8940E-02

== TH FLOW =====================================================================
 Step    184 Time=  8.60000E+00 Dt=  5.00000E-02 [y] snes_conv_reason:    3
  newton =   1 [     190] linear =   136 [     25291] cuts =  0 [   0]
  --> max chng: dpmx=   1.0984E+00 dtmpmx=   6.8596E-02

== TH FLOW =====================================================================
 Step    185 Time=  8.65000E+00 Dt=  5.00000E-02 [y] snes_conv_reason:    3
  newton =   1 [     191] linear =   139 [     25430] cuts =  0 [   0]
  --> max chng: dpmx=   1.0962E+00 dtmpmx=   6.8463E-02

== TH FLOW =====================================================================
 Step    186 Time=  8.70000E+00 Dt=  5.00000E-02 [y] snes_conv_reason:    3
  newton =   1 [     192] linear =   137 [     25567] cuts =  0 [   0]
  --> max chng: dpmx=   1.0930E+00 dtmpmx=   6.8220E-02

== TH FLOW =====================================================================
 Step    187 Time=  8.75000E+00 Dt=  5.00000E-02 [y] snes_conv_reason:    3
  newton =   1 [     193] linear =   127 [     25694] cuts =  0 [   0]
  --> max chng: dpmx=   1.0912E+00 dtmpmx=   6.7871E-02

== TH FLOW =====================================================================
 Step    188 Time=  8.80000E+00 Dt=  5.00000E-02 [y] snes_conv_reason:    3
  newton =   1 [     194] linear =   129 [     25823] cuts =  0 [   0]
  --> max chng: dpmx=   1.0880E+00 dtmpmx=   6.7724E-02

== TH FLOW =====================================================================
 Step    189 Time=  8.85000E+00 Dt=  5.00000E-02 [y] snes_conv_reason:    3
  newton =   1 [     195] linear =   136 [     25959] cuts =  0 [   0]
  --> max chng: dpmx=   1.0856E+00 dtmpmx=   6.7513E-02

== TH FLOW =====================================================================
 Step    190 Time=  8.90000E+00 Dt=  5.00000E-02 [y] snes_conv_reason:    3
  newton =   1 [     196] linear =   134 [     26093] cuts =  0 [   0]
  --> max chng: dpmx=   1.0833E+00 dtmpmx=   6.7197E-02

== TH FLOW =====================================================================
 Step    191 Time=  8.95000E+00 Dt=  5.00000E-02 [y] snes_conv_reason:    3
  newton =   1 [     197] linear =   134 [     26227] cuts =  0 [   0]
  --> max chng: dpmx=   1.0808E+00 dtmpmx=   6.6998E-02

== TH FLOW =====================================================================
 Step    192 Time=  9.00000E+00 Dt=  5.00000E-02 [y] snes_conv_reason:    3
  newton =   1 [     198] linear =   130 [     26357] cuts =  0 [   0]
  --> max chng: dpmx=   1.0780E+00 dtmpmx=   6.6816E-02

== TH FLOW =====================================================================
 Step    193 Time=  9.05000E+00 Dt=  5.00000E-02 [y] snes_conv_reason:    3
  newton =   1 [     199] linear =   132 [     26489] cuts =  0 [   0]
  --> max chng: dpmx=   1.0754E+00 dtmpmx=   6.6532E-02

== TH FLOW =====================================================================
 Step    194 Time=  9.10000E+00 Dt=  5.00000E-02 [y] snes_conv_reason:    3
  newton =   1 [     200] linear =   129 [     26618] cuts =  0 [   0]
  --> max chng: dpmx=   1.0728E+00 dtmpmx=   6.6285E-02

== TH FLOW =====================================================================
 Step    195 Time=  9.15000E+00 Dt=  5.00000E-02 [y] snes_conv_reason:    3
  newton =   1 [     201] linear =   123 [     26741] cuts =  0 [   0]
  --> max chng: dpmx=   1.0711E+00 dtmpmx=   6.6131E-02

== TH FLOW =====================================================================
 Step    196 Time=  9.20000E+00 Dt=  5.00000E-02 [y] snes_conv_reason:    3
  newton =   1 [     202] linear =   134 [     26875] cuts =  0 [   0]
  --> max chng: dpmx=   1.0681E+00 dtmpmx=   6.5878E-02

== TH FLOW =====================================================================
 Step    197 Time=  9.25000E+00 Dt=  5.00000E-02 [y] snes_conv_reason:    3
  newton =   1 [     203] linear =   135 [     27010] cuts =  0 [   0]
  --> max chng: dpmx=   1.0653E+00 dtmpmx=   6.5585E-02

== TH FLOW =====================================================================
 Step    198 Time=  9.30000E+00 Dt=  5.00000E-02 [y] snes_conv_reason:    3
  newton =   1 [     204] linear =   129 [     27139] cuts =  0 [   0]
  --> max chng: dpmx=   1.0629E+00 dtmpmx=   6.5458E-02

== TH FLOW =====================================================================
 Step    199 Time=  9.35000E+00 Dt=  5.00000E-02 [y] snes_conv_reason:    3
  newton =   1 [     205] linear =   132 [     27271] cuts =  0 [   0]
  --> max chng: dpmx=   1.0609E+00 dtmpmx=   6.5233E-02

== TH FLOW =====================================================================
 Step    200 Time=  9.40000E+00 Dt=  5.00000E-02 [y] snes_conv_reason:    3
  newton =   1 [     206] linear =   133 [     27404] cuts =  0 [   0]
  --> max chng: dpmx=   1.0573E+00 dtmpmx=   6.4912E-02

== TH FLOW =====================================================================
 Step    201 Time=  9.45000E+00 Dt=  5.00000E-02 [y] snes_conv_reason:    3
  newton =   1 [     207] linear =   134 [     27538] cuts =  0 [   0]
  --> max chng: dpmx=   1.0560E+00 dtmpmx=   6.4795E-02

== TH FLOW =====================================================================
 Step    202 Time=  9.50000E+00 Dt=  5.00000E-02 [y] snes_conv_reason:    3
  newton =   1 [     208] linear =   135 [     27673] cuts =  0 [   0]
  --> max chng: dpmx=   1.0531E+00 dtmpmx=   6.4597E-02

== TH FLOW =====================================================================
 Step    203 Time=  9.55000E+00 Dt=  5.00000E-02 [y] snes_conv_reason:    3
  newton =   1 [     209] linear =   131 [     27804] cuts =  0 [   0]
  --> max chng: dpmx=   1.0503E+00 dtmpmx=   6.4306E-02

== TH FLOW =====================================================================
 Step    204 Time=  9.60000E+00 Dt=  5.00000E-02 [y] snes_conv_reason:    3
  newton =   1 [     210] linear =   134 [     27938] cuts =  0 [   0]
  --> max chng: dpmx=   1.0481E+00 dtmpmx=   6.4142E-02

== TH FLOW =====================================================================
 Step    205 Time=  9.65000E+00 Dt=  5.00000E-02 [y] snes_conv_reason:    3
  newton =   1 [     211] linear =   129 [     28067] cuts =  0 [   0]
  --> max chng: dpmx=   1.0453E+00 dtmpmx=   6.3971E-02

== TH FLOW =====================================================================
 Step    206 Time=  9.70000E+00 Dt=  5.00000E-02 [y] snes_conv_reason:    3
  newton =   1 [     212] linear =   129 [     28196] cuts =  0 [   0]
  --> max chng: dpmx=   1.0427E+00 dtmpmx=   6.3708E-02

== TH FLOW =====================================================================
 Step    207 Time=  9.75000E+00 Dt=  5.00000E-02 [y] snes_conv_reason:    3
  newton =   1 [     213] linear =   130 [     28326] cuts =  0 [   0]
  --> max chng: dpmx=   1.0405E+00 dtmpmx=   6.3500E-02

== TH FLOW =====================================================================
 Step    208 Time=  9.80000E+00 Dt=  5.00000E-02 [y] snes_conv_reason:    3
  newton =   1 [     214] linear =   134 [     28460] cuts =  0 [   0]
  --> max chng: dpmx=   1.0384E+00 dtmpmx=   6.3354E-02

== TH FLOW =====================================================================
 Step    209 Time=  9.85000E+00 Dt=  5.00000E-02 [y] snes_conv_reason:    3
  newton =   1 [     215] linear =   133 [     28593] cuts =  0 [   0]
  --> max chng: dpmx=   1.0356E+00 dtmpmx=   6.3118E-02

== TH FLOW =====================================================================
 Step    210 Time=  9.90000E+00 Dt=  5.00000E-02 [y] snes_conv_reason:    3
  newton =   1 [     216] linear =   129 [     28722] cuts =  0 [   0]
  --> max chng: dpmx=   1.0331E+00 dtmpmx=   6.2869E-02

== TH FLOW =====================================================================
 Step    211 Time=  9.95000E+00 Dt=  5.00000E-02 [y] snes_conv_reason:    3
  newton =   1 [     217] linear =   128 [     28850] cuts =  0 [   0]
  --> max chng: dpmx=   1.0301E+00 dtmpmx=   6.2746E-02

== TH FLOW =====================================================================
 Step    212 Time=  1.00000E+01 Dt=  5.00000E-02 [y] snes_conv_reason:    3
  newton =   1 [     218] linear =   132 [     28982] cuts =  0 [   0]
  --> max chng: dpmx=   1.0278E+00 dtmpmx=   6.2535E-02

== TH FLOW =====================================================================
 Step    213 Time=  1.00500E+01 Dt=  5.00000E-02 [y] snes_conv_reason:    3
  newton =   1 [     219] linear =   133 [     29115] cuts =  0 [   0]
  --> max chng: dpmx=   1.0259E+00 dtmpmx=   6.2247E-02

== TH FLOW =====================================================================
 Step    214 Time=  1.01000E+01 Dt=  5.00000E-02 [y] snes_conv_reason:    3
  newton =   1 [     220] linear =   129 [     29244] cuts =  0 [   0]
  --> max chng: dpmx=   1.0233E+00 dtmpmx=   6.2147E-02

== TH FLOW =====================================================================
 Step    215 Time=  1.01500E+01 Dt=  5.00000E-02 [y] snes_conv_reason:    3
  newton =   1 [     221] linear =   133 [     29377] cuts =  0 [   0]
  --> max chng: dpmx=   1.0204E+00 dtmpmx=   6.1961E-02

== TH FLOW =====================================================================
 Step    216 Time=  1.02000E+01 Dt=  5.00000E-02 [y] snes_conv_reason:    3
  newton =   1 [     222] linear =   130 [     29507] cuts =  0 [   0]
  --> max chng: dpmx=   1.0180E+00 dtmpmx=   6.1690E-02

== TH FLOW =====================================================================
 Step    217 Time=  1.02500E+01 Dt=  5.00000E-02 [y] snes_conv_reason:    3
  newton =   1 [     223] linear =   130 [     29637] cuts =  0 [   0]
  --> max chng: dpmx=   1.0158E+00 dtmpmx=   6.1557E-02

== TH FLOW =====================================================================
 Step    218 Time=  1.03000E+01 Dt=  5.00000E-02 [y] snes_conv_reason:    3
  newton =   1 [     224] linear =   129 [     29766] cuts =  0 [   0]
  --> max chng: dpmx=   1.0135E+00 dtmpmx=   6.1394E-02

== TH FLOW =====================================================================
 Step    219 Time=  1.03500E+01 Dt=  5.00000E-02 [y] snes_conv_reason:    3
  newton =   1 [     225] linear =   131 [     29897] cuts =  0 [   0]
  --> max chng: dpmx=   1.0100E+00 dtmpmx=   6.1148E-02

== TH FLOW =====================================================================
 Step    220 Time=  1.04000E+01 Dt=  5.00000E-02 [y] snes_conv_reason:    3
  newton =   1 [     226] linear =   130 [     30027] cuts =  0 [   0]
  --> max chng: dpmx=   1.0084E+00 dtmpmx=   6.0975E-02

== TH FLOW =====================================================================
 Step    221 Time=  1.04500E+01 Dt=  5.00000E-02 [y] snes_conv_reason:    3
  newton =   1 [     227] linear =   128 [     30155] cuts =  0 [   0]
  --> max chng: dpmx=   1.0064E+00 dtmpmx=   6.0834E-02

== TH FLOW =====================================================================
 Step    222 Time=  1.05000E+01 Dt=  5.00000E-02 [y] snes_conv_reason:    3
  newton =   1 [     228] linear =   133 [     30288] cuts =  0 [   0]
  --> max chng: dpmx=   1.0030E+00 dtmpmx=   6.0613E-02

== TH FLOW =====================================================================
 Step    223 Time=  1.05500E+01 Dt=  5.00000E-02 [y] snes_conv_reason:    3
  newton =   1 [     229] linear =   134 [     30422] cuts =  0 [   0]
  --> max chng: dpmx=   1.0010E+00 dtmpmx=   6.0402E-02

== TH FLOW =====================================================================
 Step    224 Time=  1.06000E+01 Dt=  5.00000E-02 [y] snes_conv_reason:   11
  newton =   1 [     230] linear =   121 [     30543] cuts =  0 [   0]
  --> max chng: dpmx=   9.9866E-01 dtmpmx=   6.0282E-02

== TH FLOW =====================================================================
 Step    225 Time=  1.06500E+01 Dt=  5.00000E-02 [y] snes_conv_reason:   11
  newton =   1 [     231] linear =   123 [     30666] cuts =  0 [   0]
  --> max chng: dpmx=   9.9564E-01 dtmpmx=   6.0084E-02

== TH FLOW =====================================================================
 Step    226 Time=  1.07000E+01 Dt=  5.00000E-02 [y] snes_conv_reason:   11
  newton =   1 [     232] linear =   130 [     30796] cuts =  0 [   0]
  --> max chng: dpmx=   9.9374E-01 dtmpmx=   5.9837E-02

== TH FLOW =====================================================================
 Step    227 Time=  1.07500E+01 Dt=  5.00000E-02 [y] snes_conv_reason:   11
  newton =   1 [     233] linear =   133 [     30929] cuts =  0 [   0]
  --> max chng: dpmx=   9.9102E-01 dtmpmx=   5.9738E-02

== TH FLOW =====================================================================
 Step    228 Time=  1.08000E+01 Dt=  5.00000E-02 [y] snes_conv_reason:   11
  newton =   1 [     234] linear =   131 [     31060] cuts =  0 [   0]
  --> max chng: dpmx=   9.8833E-01 dtmpmx=   5.9561E-02

== TH FLOW =====================================================================
 Step    229 Time=  1.08500E+01 Dt=  5.00000E-02 [y] snes_conv_reason:   11
  newton =   1 [     235] linear =   131 [     31191] cuts =  0 [   0]
  --> max chng: dpmx=   9.8635E-01 dtmpmx=   5.9308E-02

== TH FLOW =====================================================================
 Step    230 Time=  1.09000E+01 Dt=  5.00000E-02 [y] snes_conv_reason:   11
  newton =   1 [     236] linear =   132 [     31323] cuts =  0 [   0]
  --> max chng: dpmx=   9.8382E-01 dtmpmx=   5.9200E-02

== TH FLOW =====================================================================
 Step    231 Time=  1.09500E+01 Dt=  5.00000E-02 [y] snes_conv_reason:   11
  newton =   1 [     237] linear =   122 [     31445] cuts =  0 [   0]
  --> max chng: dpmx=   9.8085E-01 dtmpmx=   5.9045E-02

== TH FLOW =====================================================================
 Step    232 Time=  1.10000E+01 Dt=  5.00000E-02 [y] snes_conv_reason:   11
  newton =   1 [     238] linear =   132 [     31577] cuts =  0 [   0]
  --> max chng: dpmx=   9.7898E-01 dtmpmx=   5.8814E-02

== TH FLOW =====================================================================
 Step    233 Time=  1.10500E+01 Dt=  5.00000E-02 [y] snes_conv_reason:   11
  newton =   1 [     239] linear =   131 [     31708] cuts =  0 [   0]
  --> max chng: dpmx=   9.7623E-01 dtmpmx=   5.8670E-02

== TH FLOW =====================================================================
 Step    234 Time=  1.11000E+01 Dt=  5.00000E-02 [y] snes_conv_reason:   11
  newton =   1 [     240] linear =   131 [     31839] cuts =  0 [   0]
  --> max chng: dpmx=   9.7400E-01 dtmpmx=   5.8534E-02

== TH FLOW =====================================================================
 Step    235 Time=  1.11500E+01 Dt=  5.00000E-02 [y] snes_conv_reason:   11
  newton =   1 [     241] linear =   131 [     31970] cuts =  0 [   0]
  --> max chng: dpmx=   9.7177E-01 dtmpmx=   5.8325E-02

== TH FLOW =====================================================================
 Step    236 Time=  1.12000E+01 Dt=  5.00000E-02 [y] snes_conv_reason:   11
  newton =   1 [     242] linear =   128 [     32098] cuts =  0 [   0]
  --> max chng: dpmx=   9.6865E-01 dtmpmx=   5.8147E-02

== TH FLOW =====================================================================
 Step    237 Time=  1.12500E+01 Dt=  5.00000E-02 [y] snes_conv_reason:   11
  newton =   1 [     243] linear =   136 [     32234] cuts =  0 [   0]
  --> max chng: dpmx=   9.6684E-01 dtmpmx=   5.8031E-02

== TH FLOW =====================================================================
 Step    238 Time=  1.13000E+01 Dt=  5.00000E-02 [y] snes_conv_reason:   11
  newton =   1 [     244] linear =   135 [     32369] cuts =  0 [   0]
  --> max chng: dpmx=   9.6408E-01 dtmpmx=   5.7842E-02

== TH FLOW =====================================================================
 Step    239 Time=  1.13500E+01 Dt=  5.00000E-02 [y] snes_conv_reason:   11
  newton =   1 [     245] linear =   135 [     32504] cuts =  0 [   0]
  --> max chng: dpmx=   9.6174E-01 dtmpmx=   5.7631E-02

== TH FLOW =====================================================================
 Step    240 Time=  1.14000E+01 Dt=  5.00000E-02 [y] snes_conv_reason:   11
  newton =   1 [     246] linear =   135 [     32639] cuts =  0 [   0]
  --> max chng: dpmx=   9.5930E-01 dtmpmx=   5.7533E-02

== TH FLOW =====================================================================
 Step    241 Time=  1.14500E+01 Dt=  5.00000E-02 [y] snes_conv_reason:   11
  newton =   1 [     247] linear =   135 [     32774] cuts =  0 [   0]
  --> max chng: dpmx=   9.5697E-01 dtmpmx=   5.7364E-02

== TH FLOW =====================================================================
 Step    242 Time=  1.15000E+01 Dt=  5.00000E-02 [y] snes_conv_reason:   11
  newton =   1 [     248] linear =   133 [     32907] cuts =  0 [   0]
  --> max chng: dpmx=   9.5415E-01 dtmpmx=   5.7125E-02

== TH FLOW =====================================================================
 Step    243 Time=  1.15500E+01 Dt=  5.00000E-02 [y] snes_conv_reason:   11
  newton =   1 [     249] linear =   129 [     33036] cuts =  0 [   0]
  --> max chng: dpmx=   9.5227E-01 dtmpmx=   5.7041E-02

== TH FLOW =====================================================================
 Step    244 Time=  1.16000E+01 Dt=  5.00000E-02 [y] snes_conv_reason:   11
  newton =   1 [     250] linear =   133 [     33169] cuts =  0 [   0]
  --> max chng: dpmx=   9.4967E-01 dtmpmx=   5.6891E-02

== TH FLOW =====================================================================
 Step    245 Time=  1.16500E+01 Dt=  5.00000E-02 [y] snes_conv_reason:   11
  newton =   1 [     251] linear =   130 [     33299] cuts =  0 [   0]
  --> max chng: dpmx=   9.4703E-01 dtmpmx=   5.6672E-02

== TH FLOW =====================================================================
 Step    246 Time=  1.17000E+01 Dt=  5.00000E-02 [y] snes_conv_reason:   11
  newton =   1 [     252] linear =   133 [     33432] cuts =  0 [   0]
  --> max chng: dpmx=   9.4490E-01 dtmpmx=   5.6556E-02

== TH FLOW =====================================================================
 Step    247 Time=  1.17500E+01 Dt=  5.00000E-02 [y] snes_conv_reason:   11
  newton =   1 [     253] linear =   136 [     33568] cuts =  0 [   0]
  --> max chng: dpmx=   9.4224E-01 dtmpmx=   5.6424E-02

== TH FLOW =====================================================================
 Step    248 Time=  1.18000E+01 Dt=  5.00000E-02 [y] snes_conv_reason:   11
  newton =   1 [     254] linear =   133 [     33701] cuts =  0 [   0]
  --> max chng: dpmx=   9.3992E-01 dtmpmx=   5.6224E-02

== TH FLOW =====================================================================
 Step    249 Time=  1.18500E+01 Dt=  5.00000E-02 [y] snes_conv_reason:   11
  newton =   1 [     255] linear =   134 [     33835] cuts =  0 [   0]
  --> max chng: dpmx=   9.3739E-01 dtmpmx=   5.6076E-02

== TH FLOW =====================================================================
 Step    250 Time=  1.19000E+01 Dt=  5.00000E-02 [y] snes_conv_reason:   11
  newton =   1 [     256] linear =   133 [     33968] cuts =  0 [   0]
  --> max chng: dpmx=   9.3509E-01 dtmpmx=   5.5962E-02

== TH FLOW =====================================================================
 Step    251 Time=  1.19500E+01 Dt=  5.00000E-02 [y] snes_conv_reason:   11
  newton =   1 [     257] linear =   122 [     34090] cuts =  0 [   0]
  --> max chng: dpmx=   9.3249E-01 dtmpmx=   5.5781E-02

== TH FLOW =====================================================================
 Step    252 Time=  1.20000E+01 Dt=  5.00000E-02 [y] snes_conv_reason:   11
  newton =   1 [     258] linear =   133 [     34223] cuts =  0 [   0]
  --> max chng: dpmx=   9.3017E-01 dtmpmx=   5.5602E-02

== TH FLOW =====================================================================
 Step    253 Time=  1.20500E+01 Dt=  5.00000E-02 [y] snes_conv_reason:   11
  newton =   1 [     259] linear =   126 [     34349] cuts =  0 [   0]
  --> max chng: dpmx=   9.2796E-01 dtmpmx=   5.5505E-02

== TH FLOW =====================================================================
 Step    254 Time=  1.21000E+01 Dt=  5.00000E-02 [y] snes_conv_reason:   11
  newton =   1 [     260] linear =   135 [     34484] cuts =  0 [   0]
  --> max chng: dpmx=   9.2506E-01 dtmpmx=   5.5342E-02

== TH FLOW =====================================================================
 Step    255 Time=  1.21500E+01 Dt=  5.00000E-02 [y] snes_conv_reason:   11
  newton =   1 [     261] linear =   130 [     34614] cuts =  0 [   0]
  --> max chng: dpmx=   9.2334E-01 dtmpmx=   5.5134E-02

== TH FLOW =====================================================================
 Step    256 Time=  1.22000E+01 Dt=  5.00000E-02 [y] snes_conv_reason:   11
  newton =   1 [     262] linear =   132 [     34746] cuts =  0 [   0]
  --> max chng: dpmx=   9.2034E-01 dtmpmx=   5.5053E-02

== TH FLOW =====================================================================
 Step    257 Time=  1.22500E+01 Dt=  5.00000E-02 [y] snes_conv_reason:   11
  newton =   1 [     263] linear =   133 [     34879] cuts =  0 [   0]
  --> max chng: dpmx=   9.1809E-01 dtmpmx=   5.4907E-02

[...]
 Step    493 Time=  2.40500E+01 Dt=  5.00000E-02 [y] snes_conv_reason:   11
  newton =   1 [     499] linear =   131 [     65816] cuts =  0 [   0]
  --> max chng: dpmx=   9.9824E-01 dtmpmx=   3.4285E-02

== TH FLOW =====================================================================
 Step    494 Time=  2.41000E+01 Dt=  5.00000E-02 [y] snes_conv_reason:    3
  newton =   1 [     500] linear =   131 [     65947] cuts =  0 [   0]
  --> max chng: dpmx=   1.0002E+00 dtmpmx=   3.4239E-02

== TH FLOW =====================================================================
 Step    495 Time=  2.41500E+01 Dt=  5.00000E-02 [y] snes_conv_reason:    3
  newton =   1 [     501] linear =   131 [     66078] cuts =  0 [   0]
  --> max chng: dpmx=   1.0023E+00 dtmpmx=   3.4171E-02

== TH FLOW =====================================================================
 Step    496 Time=  2.42000E+01 Dt=  5.00000E-02 [y] snes_conv_reason:    3
  newton =   1 [     502] linear =   131 [     66209] cuts =  0 [   0]
  --> max chng: dpmx=   1.0044E+00 dtmpmx=   3.4123E-02

== TH FLOW =====================================================================
 Step    497 Time=  2.42500E+01 Dt=  5.00000E-02 [y] snes_conv_reason:    3
  newton =   1 [     503] linear =   126 [     66335] cuts =  0 [   0]
  --> max chng: dpmx=   1.0066E+00 dtmpmx=   3.4081E-02

== TH FLOW =====================================================================
 Step    498 Time=  2.43000E+01 Dt=  5.00000E-02 [y] snes_conv_reason:    3
  newton =   1 [     504] linear =   133 [     66468] cuts =  0 [   0]
  --> max chng: dpmx=   1.0086E+00 dtmpmx=   3.4018E-02

== TH FLOW =====================================================================
 Step    499 Time=  2.43500E+01 Dt=  5.00000E-02 [y] snes_conv_reason:    3
  newton =   1 [     505] linear =   133 [     66601] cuts =  0 [   0]
  --> max chng: dpmx=   1.0107E+00 dtmpmx=   3.3961E-02

== TH FLOW =====================================================================
 Step    500 Time=  2.44000E+01 Dt=  5.00000E-02 [y] snes_conv_reason:    3
  newton =   1 [     506] linear =   133 [     66734] cuts =  0 [   0]
  --> max chng: dpmx=   1.0129E+00 dtmpmx=   3.3924E-02

== TH FLOW =====================================================================
 Step    501 Time=  2.44500E+01 Dt=  5.00000E-02 [y] snes_conv_reason:    3
  newton =   1 [     507] linear =   131 [     66865] cuts =  0 [   0]
  --> max chng: dpmx=   1.0150E+00 dtmpmx=   3.3865E-02

== TH FLOW =====================================================================
 Step    502 Time=  2.45000E+01 Dt=  5.00000E-02 [y] snes_conv_reason:    3
  newton =   1 [     508] linear =   126 [     66991] cuts =  0 [   0]
  --> max chng: dpmx=   1.0169E+00 dtmpmx=   3.3801E-02

== TH FLOW =====================================================================
 Step    503 Time=  2.45500E+01 Dt=  5.00000E-02 [y] snes_conv_reason:    3
  newton =   1 [     509] linear =   125 [     67116] cuts =  0 [   0]
  --> max chng: dpmx=   1.0194E+00 dtmpmx=   3.3767E-02

== TH FLOW =====================================================================
 Step    504 Time=  2.46000E+01 Dt=  5.00000E-02 [y] snes_conv_reason:    3
  newton =   1 [     510] linear =   124 [     67240] cuts =  0 [   0]
  --> max chng: dpmx=   1.0213E+00 dtmpmx=   3.3713E-02

== TH FLOW =====================================================================
 Step    505 Time=  2.46500E+01 Dt=  5.00000E-02 [y] snes_conv_reason:    3
  newton =   1 [     511] linear =   131 [     67371] cuts =  0 [   0]
  --> max chng: dpmx=   1.0233E+00 dtmpmx=   3.3641E-02

== TH FLOW =====================================================================
 Step    506 Time=  2.47000E+01 Dt=  5.00000E-02 [y] snes_conv_reason:    3
  newton =   1 [     512] linear =   133 [     67504] cuts =  0 [   0]
  --> max chng: dpmx=   1.0254E+00 dtmpmx=   3.3612E-02

== TH FLOW =====================================================================
 Step    507 Time=  2.47500E+01 Dt=  5.00000E-02 [y] snes_conv_reason:    3
  newton =   1 [     513] linear =   126 [     67630] cuts =  0 [   0]
  --> max chng: dpmx=   1.0275E+00 dtmpmx=   3.3562E-02

== TH FLOW =====================================================================
 Step    508 Time=  2.48000E+01 Dt=  5.00000E-02 [y] snes_conv_reason:    3
  newton =   1 [     514] linear =   126 [     67756] cuts =  0 [   0]
  --> max chng: dpmx=   1.0297E+00 dtmpmx=   3.3492E-02

== TH FLOW =====================================================================
 Step    509 Time=  2.48500E+01 Dt=  5.00000E-02 [y] snes_conv_reason:    3
  newton =   1 [     515] linear =   128 [     67884] cuts =  0 [   0]
  --> max chng: dpmx=   1.0321E+00 dtmpmx=   3.3457E-02

== TH FLOW =====================================================================
 Step    510 Time=  2.49000E+01 Dt=  5.00000E-02 [y] snes_conv_reason:    3
  newton =   1 [     516] linear =   131 [     68015] cuts =  0 [   0]
  --> max chng: dpmx=   1.0339E+00 dtmpmx=   3.3411E-02

== TH FLOW =====================================================================
 Step    511 Time=  2.49500E+01 Dt=  5.00000E-02 [y] snes_conv_reason:    3
  newton =   1 [     517] linear =   132 [     68147] cuts =  0 [   0]
  --> max chng: dpmx=   1.0359E+00 dtmpmx=   3.3346E-02

== TH FLOW =====================================================================
 Step    512 Time=  2.50000E+01 Dt=  5.00000E-02 [y] snes_conv_reason:    3
  newton =   1 [     518] linear =   134 [     68281] cuts =  0 [   0]
  --> max chng: dpmx=   1.0381E+00 dtmpmx=   3.3303E-02

== TH FLOW =====================================================================
 Step    513 Time=  2.50500E+01 Dt=  5.00000E-02 [y] snes_conv_reason:    3
  newton =   1 [     519] linear =   133 [     68414] cuts =  0 [   0]
  --> max chng: dpmx=   1.0403E+00 dtmpmx=   3.3261E-02

== TH FLOW =====================================================================
 Step    514 Time=  2.51000E+01 Dt=  5.00000E-02 [y] snes_conv_reason:    3
  newton =   1 [     520] linear =   132 [     68546] cuts =  0 [   0]
  --> max chng: dpmx=   1.0424E+00 dtmpmx=   3.3200E-02

== TH FLOW =====================================================================
 Step    515 Time=  2.51500E+01 Dt=  5.00000E-02 [y] snes_conv_reason:    3
  newton =   1 [     521] linear =   124 [     68670] cuts =  0 [   0]
  --> max chng: dpmx=   1.0444E+00 dtmpmx=   3.3149E-02

== TH FLOW =====================================================================
 Step    516 Time=  2.52000E+01 Dt=  5.00000E-02 [y] snes_conv_reason:    3
  newton =   1 [     522] linear =   128 [     68798] cuts =  0 [   0]
  --> max chng: dpmx=   1.0467E+00 dtmpmx=   3.3112E-02

== TH FLOW =====================================================================
 Step    517 Time=  2.52500E+01 Dt=  5.00000E-02 [y] snes_conv_reason:    3
  newton =   1 [     523] linear =   126 [     68924] cuts =  0 [   0]
  --> max chng: dpmx=   1.0487E+00 dtmpmx=   3.3055E-02

== TH FLOW =====================================================================
 Step    518 Time=  2.53000E+01 Dt=  5.00000E-02 [y] snes_conv_reason:    3
  newton =   1 [     524] linear =   127 [     69051] cuts =  0 [   0]
  --> max chng: dpmx=   1.0511E+00 dtmpmx=   3.2997E-02

== TH FLOW =====================================================================
 Step    519 Time=  2.53500E+01 Dt=  5.00000E-02 [y] snes_conv_reason:    3
  newton =   1 [     525] linear =   130 [     69181] cuts =  0 [   0]
  --> max chng: dpmx=   1.0527E+00 dtmpmx=   3.2964E-02

== TH FLOW =====================================================================
 Step    520 Time=  2.54000E+01 Dt=  5.00000E-02 [y] snes_conv_reason:    3
  newton =   1 [     526] linear =   132 [     69313] cuts =  0 [   0]
  --> max chng: dpmx=   1.0551E+00 dtmpmx=   3.2911E-02

== TH FLOW =====================================================================
 Step    521 Time=  2.54500E+01 Dt=  5.00000E-02 [y] snes_conv_reason:    3
  newton =   1 [     527] linear =   133 [     69446] cuts =  0 [   0]
  --> max chng: dpmx=   1.0573E+00 dtmpmx=   3.2845E-02

== TH FLOW =====================================================================
 Step    522 Time=  2.55000E+01 Dt=  5.00000E-02 [y] snes_conv_reason:    3
  newton =   1 [     528] linear =   134 [     69580] cuts =  0 [   0]
  --> max chng: dpmx=   1.0594E+00 dtmpmx=   3.2816E-02

== TH FLOW =====================================================================
 Step    523 Time=  2.55500E+01 Dt=  5.00000E-02 [y] snes_conv_reason:    3
  newton =   1 [     529] linear =   134 [     69714] cuts =  0 [   0]
  --> max chng: dpmx=   1.0614E+00 dtmpmx=   3.2767E-02

== TH FLOW =====================================================================
 Step    524 Time=  2.56000E+01 Dt=  5.00000E-02 [y] snes_conv_reason:    3
  newton =   1 [     530] linear =   135 [     69849] cuts =  0 [   0]
  --> max chng: dpmx=   1.0636E+00 dtmpmx=   3.2700E-02

== TH FLOW =====================================================================
 Step    525 Time=  2.56500E+01 Dt=  5.00000E-02 [y] snes_conv_reason:    3
  newton =   1 [     531] linear =   130 [     69979] cuts =  0 [   0]
  --> max chng: dpmx=   1.0656E+00 dtmpmx=   3.2669E-02

== TH FLOW =====================================================================
 Step    526 Time=  2.57000E+01 Dt=  5.00000E-02 [y] snes_conv_reason:    3
  newton =   1 [     532] linear =   130 [     70109] cuts =  0 [   0]
  --> max chng: dpmx=   1.0679E+00 dtmpmx=   3.2624E-02

== TH FLOW =====================================================================
 Step    527 Time=  2.57500E+01 Dt=  5.00000E-02 [y] snes_conv_reason:    3
  newton =   1 [     533] linear =   130 [     70239] cuts =  0 [   0]
  --> max chng: dpmx=   1.0699E+00 dtmpmx=   3.2561E-02

== TH FLOW =====================================================================
 Step    528 Time=  2.58000E+01 Dt=  5.00000E-02 [y] snes_conv_reason:    3
  newton =   1 [     534] linear =   130 [     70369] cuts =  0 [   0]
  --> max chng: dpmx=   1.0722E+00 dtmpmx=   3.2522E-02

== TH FLOW =====================================================================
 Step    529 Time=  2.58500E+01 Dt=  5.00000E-02 [y] snes_conv_reason:    3
  newton =   1 [     535] linear =   130 [     70499] cuts =  0 [   0]
  --> max chng: dpmx=   1.0743E+00 dtmpmx=   3.2482E-02

== TH FLOW =====================================================================
 Step    530 Time=  2.59000E+01 Dt=  5.00000E-02 [y] snes_conv_reason:    3
  newton =   1 [     536] linear =   126 [     70625] cuts =  0 [   0]
  --> max chng: dpmx=   1.0762E+00 dtmpmx=   3.2422E-02

== TH FLOW =====================================================================
 Step    531 Time=  2.59500E+01 Dt=  5.00000E-02 [y] snes_conv_reason:    3
  newton =   1 [     537] linear =   130 [     70755] cuts =  0 [   0]
  --> max chng: dpmx=   1.0786E+00 dtmpmx=   3.2377E-02

== TH FLOW =====================================================================
 Step    532 Time=  2.60000E+01 Dt=  5.00000E-02 [y] snes_conv_reason:    3
  newton =   1 [     538] linear =   132 [     70887] cuts =  0 [   0]
  --> max chng: dpmx=   1.0806E+00 dtmpmx=   3.2340E-02

== TH FLOW =====================================================================
 Step    533 Time=  2.60500E+01 Dt=  5.00000E-02 [y] snes_conv_reason:    3
  newton =   1 [     539] linear =   133 [     71020] cuts =  0 [   0]
  --> max chng: dpmx=   1.0827E+00 dtmpmx=   3.2285E-02

== TH FLOW =====================================================================
 Step    534 Time=  2.61000E+01 Dt=  5.00000E-02 [y] snes_conv_reason:    3
  newton =   1 [     540] linear =   138 [     71158] cuts =  0 [   0]
  --> max chng: dpmx=   1.0848E+00 dtmpmx=   3.2232E-02

== TH FLOW =====================================================================
 Step    535 Time=  2.61500E+01 Dt=  5.00000E-02 [y] snes_conv_reason:    3
  newton =   1 [     541] linear =   134 [     71292] cuts =  0 [   0]
  --> max chng: dpmx=   1.0871E+00 dtmpmx=   3.2199E-02

== TH FLOW =====================================================================
 Step    536 Time=  2.62000E+01 Dt=  5.00000E-02 [y] snes_conv_reason:    3
  newton =   1 [     542] linear =   129 [     71421] cuts =  0 [   0]
  --> max chng: dpmx=   1.0892E+00 dtmpmx=   3.2147E-02

== TH FLOW =====================================================================
 Step    537 Time=  2.62500E+01 Dt=  5.00000E-02 [y] snes_conv_reason:    3
  newton =   1 [     543] linear =   132 [     71553] cuts =  0 [   0]
  --> max chng: dpmx=   1.0912E+00 dtmpmx=   3.2087E-02

== TH FLOW =====================================================================
 Step    538 Time=  2.63000E+01 Dt=  5.00000E-02 [y] snes_conv_reason:    3
  newton =   1 [     544] linear =   131 [     71684] cuts =  0 [   0]
  --> max chng: dpmx=   1.0934E+00 dtmpmx=   3.2058E-02

== TH FLOW =====================================================================
 Step    539 Time=  2.63500E+01 Dt=  5.00000E-02 [y] snes_conv_reason:    3
  newton =   1 [     545] linear =   132 [     71816] cuts =  0 [   0]
  --> max chng: dpmx=   1.0956E+00 dtmpmx=   3.2011E-02

== TH FLOW =====================================================================
 Step    540 Time=  2.64000E+01 Dt=  5.00000E-02 [y] snes_conv_reason:    3
  newton =   1 [     546] linear =   124 [     71940] cuts =  0 [   0]
  --> max chng: dpmx=   1.0977E+00 dtmpmx=   3.1945E-02

== TH FLOW =====================================================================
 Step    541 Time=  2.64500E+01 Dt=  5.00000E-02 [y] snes_conv_reason:    3
  newton =   1 [     547] linear =   128 [     72068] cuts =  0 [   0]
  --> max chng: dpmx=   1.0998E+00 dtmpmx=   3.1918E-02

== TH FLOW =====================================================================
 Step    542 Time=  2.65000E+01 Dt=  5.00000E-02 [y] snes_conv_reason:    3
  newton =   1 [     548] linear =   131 [     72199] cuts =  0 [   0]
  --> max chng: dpmx=   1.1020E+00 dtmpmx=   3.1874E-02

== TH FLOW =====================================================================
 Step    543 Time=  2.65500E+01 Dt=  5.00000E-02 [y] snes_conv_reason:    3
  newton =   1 [     549] linear =   131 [     72330] cuts =  0 [   0]
  --> max chng: dpmx=   1.1040E+00 dtmpmx=   3.1813E-02

== TH FLOW =====================================================================
 Step    544 Time=  2.66000E+01 Dt=  5.00000E-02 [y] snes_conv_reason:    3
  newton =   1 [     550] linear =   131 [     72461] cuts =  0 [   0]
  --> max chng: dpmx=   1.1062E+00 dtmpmx=   3.1779E-02

== TH FLOW =====================================================================
 Step    545 Time=  2.66500E+01 Dt=  5.00000E-02 [y] snes_conv_reason:    3
  newton =   1 [     551] linear =   133 [     72594] cuts =  0 [   0]
  --> max chng: dpmx=   1.1084E+00 dtmpmx=   3.1739E-02

== TH FLOW =====================================================================
 Step    546 Time=  2.67000E+01 Dt=  5.00000E-02 [y] snes_conv_reason:    3
  newton =   1 [     552] linear =   131 [     72725] cuts =  0 [   0]
  --> max chng: dpmx=   1.1105E+00 dtmpmx=   3.1681E-02

== TH FLOW =====================================================================
 Step    547 Time=  2.67500E+01 Dt=  5.00000E-02 [y] snes_conv_reason:    3
  newton =   1 [     553] linear =   131 [     72856] cuts =  0 [   0]
  --> max chng: dpmx=   1.1127E+00 dtmpmx=   3.1640E-02

== TH FLOW =====================================================================
 Step    548 Time=  2.68000E+01 Dt=  5.00000E-02 [y] snes_conv_reason:    3
  newton =   1 [     554] linear =   129 [     72985] cuts =  0 [   0]
  --> max chng: dpmx=   1.1149E+00 dtmpmx=   3.1604E-02

== TH FLOW =====================================================================
 Step    549 Time=  2.68500E+01 Dt=  5.00000E-02 [y] snes_conv_reason:    3
  newton =   1 [     555] linear =   128 [     73113] cuts =  0 [   0]
  --> max chng: dpmx=   1.1169E+00 dtmpmx=   3.1550E-02

== TH FLOW =====================================================================
 Step    550 Time=  2.69000E+01 Dt=  5.00000E-02 [y] snes_conv_reason:    3
  newton =   1 [     556] linear =   130 [     73243] cuts =  0 [   0]
  --> max chng: dpmx=   1.1191E+00 dtmpmx=   3.1502E-02

== TH FLOW =====================================================================
 Step    551 Time=  2.69500E+01 Dt=  5.00000E-02 [y] snes_conv_reason:    3
  newton =   1 [     557] linear =   124 [     73367] cuts =  0 [   0]
  --> max chng: dpmx=   1.1214E+00 dtmpmx=   3.1469E-02

== TH FLOW =====================================================================
 Step    552 Time=  2.70000E+01 Dt=  5.00000E-02 [y] snes_conv_reason:    3
  newton =   1 [     558] linear =   134 [     73501] cuts =  0 [   0]
  --> max chng: dpmx=   1.1232E+00 dtmpmx=   3.1419E-02

== TH FLOW =====================================================================
 Step    553 Time=  2.70500E+01 Dt=  5.00000E-02 [y] snes_conv_reason:    3
  newton =   1 [     559] linear =   121 [     73622] cuts =  0 [   0]
  --> max chng: dpmx=   1.1257E+00 dtmpmx=   3.1365E-02

== TH FLOW =====================================================================
 Step    554 Time=  2.71000E+01 Dt=  5.00000E-02 [y] snes_conv_reason:    3
  newton =   1 [     560] linear =   126 [     73748] cuts =  0 [   0]
  --> max chng: dpmx=   1.1274E+00 dtmpmx=   3.1336E-02

== TH FLOW =====================================================================
 Step    555 Time=  2.71500E+01 Dt=  5.00000E-02 [y] snes_conv_reason:    3
  newton =   1 [     561] linear =   130 [     73878] cuts =  0 [   0]
  --> max chng: dpmx=   1.1298E+00 dtmpmx=   3.1289E-02

== TH FLOW =====================================================================
 Step    556 Time=  2.72000E+01 Dt=  5.00000E-02 [y] snes_conv_reason:    3
  newton =   1 [     562] linear =   130 [     74008] cuts =  0 [   0]
  --> max chng: dpmx=   1.1320E+00 dtmpmx=   3.1228E-02

== TH FLOW =====================================================================
 Step    557 Time=  2.72500E+01 Dt=  5.00000E-02 [y] snes_conv_reason:    3
  newton =   1 [     563] linear =   124 [     74132] cuts =  0 [   0]
  --> max chng: dpmx=   1.1342E+00 dtmpmx=   3.1202E-02

== TH FLOW =====================================================================
 Step    558 Time=  2.73000E+01 Dt=  5.00000E-02 [y] snes_conv_reason:    3
  newton =   1 [     564] linear =   132 [     74264] cuts =  0 [   0]
  --> max chng: dpmx=   1.1363E+00 dtmpmx=   3.1159E-02

== TH FLOW =====================================================================
 Step    559 Time=  2.73500E+01 Dt=  5.00000E-02 [y] snes_conv_reason:    3
  newton =   1 [     565] linear =   122 [     74386] cuts =  0 [   0]
  --> max chng: dpmx=   1.1383E+00 dtmpmx=   3.1099E-02

== TH FLOW =====================================================================
 Step    560 Time=  2.74000E+01 Dt=  5.00000E-02 [y] snes_conv_reason:    3
  newton =   1 [     566] linear =   123 [     74509] cuts =  0 [   0]
  --> max chng: dpmx=   1.1404E+00 dtmpmx=   3.1070E-02

== TH FLOW =====================================================================
 Step    561 Time=  2.74500E+01 Dt=  5.00000E-02 [y] snes_conv_reason:    3
  newton =   1 [     567] linear =   130 [     74639] cuts =  0 [   0]
  --> max chng: dpmx=   1.1428E+00 dtmpmx=   3.1030E-02

== TH FLOW =====================================================================
 Step    562 Time=  2.75000E+01 Dt=  5.00000E-02 [y] snes_conv_reason:    3
  newton =   1 [     568] linear =   126 [     74765] cuts =  0 [   0]
  --> max chng: dpmx=   1.1450E+00 dtmpmx=   3.0973E-02

 Wall Clock Time:  1.1512E+02 [sec]   1.9186E+00 [min]   3.1977E-02 [hr]
