
===================
  PFLOTRAN v3.0.1
===================

 Extent of Gridded Domain
  X: 2.5000000000000000 - 97.500000000000000
  Y: 2.5000000000000000 - 1277.5000000000000
  Z: 2.5000000000000000 - 2.5000000000000000


=+=+=+=+=+=+=+=+=+=+=+=+=+=+=+=+=+=+=+=+=+=+=+=+=+=+=+=+=+=+=+=+=+=+=+=+=+=+=+=+

  Initial Condition

--------------------------------------------------------------------------------
          Flow Condition:   initial
                  Region:   all
--------------------------------------------------------------------------------

  Flow Condition: initial
    Synchronize time with update: no
    Time units: yr
    Length units: m
      Datum:
        Dataset: Unnamed Ascii Dataset
          Type: dataset_ascii_type
          Transient: no
          Array Rank:  3

    Sub Condition: pressure
      Type: hydrostatic
      Gradient:
        Dataset: Unnamed Ascii Dataset
          Type: dataset_ascii_type
          Transient: no
          Array Rank:  3
      Data:
        Dataset: Unnamed Ascii Dataset
          Type: dataset_ascii_type
          Transient: no
          Array Rank:  1

    Sub Condition: temperature
      Type: dirichlet
      Gradient:
      Data:
        Dataset: Unnamed Ascii Dataset
          Type: dataset_ascii_type
          Transient: no
          Array Rank:  1

--------------------------------------------------------------------------------

=+=+=+=+=+=+=+=+=+=+=+=+=+=+=+=+=+=+=+=+=+=+=+=+=+=+=+=+=+=+=+=+=+=+=+=+=+=+=+=+

  Boundary Condition

--------------------------------------------------------------------------------
          Flow Condition:   initial
                  Region:   north
--------------------------------------------------------------------------------

  Flow Condition: initial
    Synchronize time with update: no
    Time units: yr
    Length units: m
      Datum:
        Dataset: Unnamed Ascii Dataset
          Type: dataset_ascii_type
          Transient: no
          Array Rank:  3

    Sub Condition: pressure
      Type: hydrostatic
      Gradient:
        Dataset: Unnamed Ascii Dataset
          Type: dataset_ascii_type
          Transient: no
          Array Rank:  3
      Data:
        Dataset: Unnamed Ascii Dataset
          Type: dataset_ascii_type
          Transient: no
          Array Rank:  1

    Sub Condition: temperature
      Type: dirichlet
      Gradient:
      Data:
        Dataset: Unnamed Ascii Dataset
          Type: dataset_ascii_type
          Transient: no
          Array Rank:  1

--------------------------------------------------------------------------------

=+=+=+=+=+=+=+=+=+=+=+=+=+=+=+=+=+=+=+=+=+=+=+=+=+=+=+=+=+=+=+=+=+=+=+=+=+=+=+=+

  Boundary Condition

--------------------------------------------------------------------------------
          Flow Condition:   initial
                  Region:   south
--------------------------------------------------------------------------------

  Flow Condition: initial
    Synchronize time with update: no
    Time units: yr
    Length units: m
      Datum:
        Dataset: Unnamed Ascii Dataset
          Type: dataset_ascii_type
          Transient: no
          Array Rank:  3

    Sub Condition: pressure
      Type: hydrostatic
      Gradient:
        Dataset: Unnamed Ascii Dataset
          Type: dataset_ascii_type
          Transient: no
          Array Rank:  3
      Data:
        Dataset: Unnamed Ascii Dataset
          Type: dataset_ascii_type
          Transient: no
          Array Rank:  1

    Sub Condition: temperature
      Type: dirichlet
      Gradient:
      Data:
        Dataset: Unnamed Ascii Dataset
          Type: dataset_ascii_type
          Transient: no
          Array Rank:  1

--------------------------------------------------------------------------------

=+=+=+=+=+=+=+=+=+=+=+=+=+=+=+=+=+=+=+=+=+=+=+=+=+=+=+=+=+=+=+=+=+=+=+=+=+=+=+=+

  Source Sink

--------------------------------------------------------------------------------
          Flow Condition:   injection
                  Region:   heatpump_inject0
--------------------------------------------------------------------------------

  Flow Condition: injection
    Synchronize time with update: no
    Time units: yr
    Length units: m
      Datum:

    Sub Condition: rate
      Type: scaled volumetric rate
      Gradient:
      Data:
        Dataset: Unnamed Ascii Dataset
          Type: dataset_ascii_type
          Is transient?: yes
          Number of times:      3
          Is cyclic?: no
          Buffer:
            Rank:  2
            Dims:    1   3
            Buffer Slice Size:   0
          Array Rank:  1

    Sub Condition: temperature
      Type: dirichlet
      Gradient:
      Data:
        Dataset: Unnamed Ascii Dataset
          Type: dataset_ascii_type
          Transient: no
          Array Rank:  1

--------------------------------------------------------------------------------

 Requested processors =    16

FLOW Time Stepper
                 acceleration: on
       acceleration threshold: 5
       number of ramp entries: 5
                ramp entry #1: 2.0000
                ramp entry #2: 2.0000
                ramp entry #3: 2.0000
                ramp entry #4: 2.0000
                ramp entry #5: 2.0000
                ramp entry #6: 1.8000
                ramp entry #7: 1.6000
                ramp entry #8: 1.4000
                ramp entry #9: 1.2000
               ramp entry #10: 1.0000
               ramp entry #11: 1.0000
               ramp entry #12: 1.0000
               ramp entry #13: 1.0000
      maximum number of steps: 999999
constant time steps threshold: 5
       maximum number of cuts: 16
             reduction factor: 5.000000E-01
        maximum growth factor: 2.000000E+00

FLOW Newton Solver
                         atol: 1.000000E-50
                         rtol: 1.000000E-03
                         stol: 1.000000E-08
                         dtol: 1.000000E+04
                      maxnorm: 1.000000E+20
                    inftolres: -9.990000E+02
                    inftolupd: 1.000000E+00
                 inftolrelupd: -9.990000E+02
                 inftolsclres: -9.990000E+02
                     max iter: 50
                     min iter: 1
                         maxf: 10000
                  matrix type: baij
         precond. matrix type: baij
               inexact newton: off
            print convergence: on
   print detailed convergence: off
          check infinity norm: on

FLOW Linear Solver
                       solver: bcgs
               preconditioner: bjacobi
                         atol: 1.000000E-50
                         rtol: 1.000000E-05
                         dtol: 1.000000E+04
            maximum iteration: 10000

== TH FLOW =====================================================================
 Step      1 Time=  1.00000E-05 Dt=  1.00000E-05 [y] snes_conv_reason:   11
  newton =   1 [       1] linear =    66 [        66] cuts =  0 [   0]
  --> max chng: dpmx=   3.5289E-02 dtmpmx=   2.6502E-08

== TH FLOW =====================================================================
 Step      2 Time=  3.00000E-05 Dt=  2.00000E-05 [y] snes_conv_reason:   11
  newton =   1 [       2] linear =   104 [       170] cuts =  0 [   0]
  --> max chng: dpmx=   1.2530E-03 dtmpmx=   5.2917E-08

== TH FLOW =====================================================================
 Step      3 Time=  7.00000E-05 Dt=  4.00000E-05 [y] snes_conv_reason:   11
  newton =   1 [       3] linear =   114 [       284] cuts =  0 [   0]
  --> max chng: dpmx=   2.1770E-05 dtmpmx=   1.0583E-07

== TH FLOW =====================================================================
 Step      4 Time=  1.50000E-04 Dt=  8.00000E-05 [y] snes_conv_reason:   11
  newton =   1 [       4] linear =   113 [       397] cuts =  0 [   0]
  --> max chng: dpmx=   4.6543E-07 dtmpmx=   2.1167E-07

== TH FLOW =====================================================================
 Step      5 Time=  3.10000E-04 Dt=  1.60000E-04 [y] snes_conv_reason:   11
  newton =   1 [       5] linear =    94 [       491] cuts =  0 [   0]
  --> max chng: dpmx=   9.6345E-07 dtmpmx=   4.2333E-07

== TH FLOW =====================================================================
 Step      6 Time=  6.30000E-04 Dt=  3.20000E-04 [y] snes_conv_reason:   11
  newton =   1 [       6] linear =   114 [       605] cuts =  0 [   0]
  --> max chng: dpmx=   2.0069E-06 dtmpmx=   8.4667E-07

== TH FLOW =====================================================================
 Step      7 Time=  1.27000E-03 Dt=  6.40000E-04 [y] snes_conv_reason:   11
  newton =   1 [       7] linear =   119 [       724] cuts =  0 [   0]
  --> max chng: dpmx=   4.3393E-06 dtmpmx=   1.6933E-06

== TH FLOW =====================================================================
 Step      8 Time=  2.55000E-03 Dt=  1.28000E-03 [y] snes_conv_reason:   11
  newton =   1 [       8] linear =   116 [       840] cuts =  0 [   0]
  --> max chng: dpmx=   9.9766E-06 dtmpmx=   3.3867E-06

== TH FLOW =====================================================================
 Step      9 Time=  5.11000E-03 Dt=  2.56000E-03 [y] snes_conv_reason:   11
  newton =   1 [       9] linear =   119 [       959] cuts =  0 [   0]
  --> max chng: dpmx=   2.5134E-05 dtmpmx=   6.7733E-06

== TH FLOW =====================================================================
 Step     10 Time=  1.02300E-02 Dt=  5.12000E-03 [y] snes_conv_reason:   11
  newton =   1 [      10] linear =   123 [      1082] cuts =  0 [   0]
  --> max chng: dpmx=   7.0778E-05 dtmpmx=   1.3547E-05

== TH FLOW =====================================================================
 Step     11 Time=  2.04700E-02 Dt=  1.02400E-02 [y] snes_conv_reason:   11
  newton =   1 [      11] linear =   123 [      1205] cuts =  0 [   0]
  --> max chng: dpmx=   2.2141E-04 dtmpmx=   2.7093E-05

== TH FLOW =====================================================================
 Step     12 Time=  4.09500E-02 Dt=  2.04800E-02 [y] snes_conv_reason:   11
  newton =   1 [      12] linear =   119 [      1324] cuts =  0 [   0]
  --> max chng: dpmx=   7.4845E-04 dtmpmx=   5.4187E-05

== TH FLOW =====================================================================
 Step     13 Time=  8.19100E-02 Dt=  4.09600E-02 [y] snes_conv_reason:   11
  newton =   1 [      13] linear =   119 [      1443] cuts =  0 [   0]
  --> max chng: dpmx=   2.6182E-03 dtmpmx=   1.0837E-04

== TH FLOW =====================================================================
 Step     14 Time=  1.00000E-01 Dt=  1.80900E-02 [y] snes_conv_reason:   11
  newton =   1 [      14] linear =   115 [      1558] cuts =  0 [   0]
  --> max chng: dpmx=   1.3767E-03 dtmpmx=   4.7863E-05

== TH FLOW =====================================================================
 Step     15 Time=  1.50000E-01 Dt=  5.00000E-02 [y] snes_conv_reason:   11
  newton =   1 [      15] linear =   118 [      1676] cuts =  0 [   0]
  --> max chng: dpmx=   5.3038E-03 dtmpmx=   1.3229E-04

== TH FLOW =====================================================================
 Step     16 Time=  2.00000E-01 Dt=  5.00000E-02 [y] snes_conv_reason:   11
  newton =   1 [      16] linear =   122 [      1798] cuts =  0 [   0]
  --> max chng: dpmx=   6.6880E-03 dtmpmx=   1.3229E-04

== TH FLOW =====================================================================
 Step     17 Time=  2.50000E-01 Dt=  5.00000E-02 [y] snes_conv_reason:   11
  newton =   2 [      18] linear =   234 [      2032] cuts =  0 [   0]
  --> max chng: dpmx=   3.9570E+01 dtmpmx=   1.2132E+00

== TH FLOW =====================================================================
 Step     18 Time=  3.00000E-01 Dt=  5.00000E-02 [y] snes_conv_reason:   11
  newton =   1 [      19] linear =   121 [      2153] cuts =  0 [   0]
  --> max chng: dpmx=   9.7511E-01 dtmpmx=   4.5971E-01

== TH FLOW =====================================================================
 Step     19 Time=  3.50000E-01 Dt=  5.00000E-02 [y] snes_conv_reason:   11
  newton =   1 [      20] linear =   107 [      2260] cuts =  0 [   0]
  --> max chng: dpmx=   9.0602E-01 dtmpmx=   3.3220E-01

== TH FLOW =====================================================================
 Step     20 Time=  4.00000E-01 Dt=  5.00000E-02 [y] snes_conv_reason:   11
  newton =   1 [      21] linear =   117 [      2377] cuts =  0 [   0]
  --> max chng: dpmx=   8.4637E-01 dtmpmx=   2.6991E-01

== TH FLOW =====================================================================
 Step     21 Time=  4.50000E-01 Dt=  5.00000E-02 [y] snes_conv_reason:   11
  newton =   1 [      22] linear =   114 [      2491] cuts =  0 [   0]
  --> max chng: dpmx=   7.8999E-01 dtmpmx=   2.3102E-01

== TH FLOW =====================================================================
 Step     22 Time=  5.00000E-01 Dt=  5.00000E-02 [y] snes_conv_reason:   11
  newton =   1 [      23] linear =   111 [      2602] cuts =  0 [   0]
  --> max chng: dpmx=   7.3611E-01 dtmpmx=   2.0366E-01

== TH FLOW =====================================================================
 Step     23 Time=  5.50000E-01 Dt=  5.00000E-02 [y] snes_conv_reason:   11
  newton =   1 [      24] linear =   111 [      2713] cuts =  0 [   0]
  --> max chng: dpmx=   6.8498E-01 dtmpmx=   1.8308E-01

== TH FLOW =====================================================================
 Step     24 Time=  6.00000E-01 Dt=  5.00000E-02 [y] snes_conv_reason:   11
  newton =   1 [      25] linear =   113 [      2826] cuts =  0 [   0]
  --> max chng: dpmx=   6.3442E-01 dtmpmx=   1.6679E-01

== TH FLOW =====================================================================
 Step     25 Time=  6.50000E-01 Dt=  5.00000E-02 [y] snes_conv_reason:   11
  newton =   1 [      26] linear =   106 [      2932] cuts =  0 [   0]
  --> max chng: dpmx=   5.8522E-01 dtmpmx=   1.5347E-01

== TH FLOW =====================================================================
 Step     26 Time=  7.00000E-01 Dt=  5.00000E-02 [y] snes_conv_reason:   11
  newton =   1 [      27] linear =   112 [      3044] cuts =  0 [   0]
  --> max chng: dpmx=   5.3713E-01 dtmpmx=   1.4230E-01

== TH FLOW =====================================================================
 Step     27 Time=  7.50000E-01 Dt=  5.00000E-02 [y] snes_conv_reason:   11
  newton =   1 [      28] linear =   107 [      3151] cuts =  0 [   0]
  --> max chng: dpmx=   4.8998E-01 dtmpmx=   1.3276E-01

== TH FLOW =====================================================================
 Step     28 Time=  8.00000E-01 Dt=  5.00000E-02 [y] snes_conv_reason:   11
  newton =   1 [      29] linear =   107 [      3258] cuts =  0 [   0]
  --> max chng: dpmx=   4.4309E-01 dtmpmx=   1.2448E-01

== TH FLOW =====================================================================
 Step     29 Time=  8.50000E-01 Dt=  5.00000E-02 [y] snes_conv_reason:   11
  newton =   1 [      30] linear =   102 [      3360] cuts =  0 [   0]
  --> max chng: dpmx=   3.9757E-01 dtmpmx=   1.1721E-01

== TH FLOW =====================================================================
 Step     30 Time=  9.00000E-01 Dt=  5.00000E-02 [y] snes_conv_reason:   11
  newton =   1 [      31] linear =   102 [      3462] cuts =  0 [   0]
  --> max chng: dpmx=   3.9788E-01 dtmpmx=   1.1076E-01

== TH FLOW =====================================================================
 Step     31 Time=  9.50000E-01 Dt=  5.00000E-02 [y] snes_conv_reason:   11
  newton =   1 [      32] linear =    94 [      3556] cuts =  0 [   0]
  --> max chng: dpmx=   4.2565E-01 dtmpmx=   1.0501E-01

== TH FLOW =====================================================================
 Step     32 Time=  1.00000E+00 Dt=  5.00000E-02 [y] snes_conv_reason:   11
  newton =   1 [      33] linear =   107 [      3663] cuts =  0 [   0]
  --> max chng: dpmx=   4.5382E-01 dtmpmx=   9.9819E-02

== TH FLOW =====================================================================
 Step     33 Time=  1.05000E+00 Dt=  5.00000E-02 [y] snes_conv_reason:   11
  newton =   1 [      34] linear =   108 [      3771] cuts =  0 [   0]
  --> max chng: dpmx=   4.8209E-01 dtmpmx=   9.5113E-02

== TH FLOW =====================================================================
 Step     34 Time=  1.10000E+00 Dt=  5.00000E-02 [y] snes_conv_reason:   11
  newton =   1 [      35] linear =   101 [      3872] cuts =  0 [   0]
  --> max chng: dpmx=   5.1007E-01 dtmpmx=   9.0819E-02

== TH FLOW =====================================================================
 Step     35 Time=  1.15000E+00 Dt=  5.00000E-02 [y] snes_conv_reason:   11
  newton =   1 [      36] linear =   101 [      3973] cuts =  0 [   0]
  --> max chng: dpmx=   5.3801E-01 dtmpmx=   8.6883E-02

== TH FLOW =====================================================================
 Step     36 Time=  1.20000E+00 Dt=  5.00000E-02 [y] snes_conv_reason:   11
  newton =   1 [      37] linear =   103 [      4076] cuts =  0 [   0]
  --> max chng: dpmx=   5.6425E-01 dtmpmx=   8.3261E-02

== TH FLOW =====================================================================
 Step     37 Time=  1.25000E+00 Dt=  5.00000E-02 [y] snes_conv_reason:   11
  newton =   1 [      38] linear =   109 [      4185] cuts =  0 [   0]
  --> max chng: dpmx=   5.8923E-01 dtmpmx=   7.9914E-02

== TH FLOW =====================================================================
 Step     38 Time=  1.30000E+00 Dt=  5.00000E-02 [y] snes_conv_reason:   11
  newton =   1 [      39] linear =   103 [      4288] cuts =  0 [   0]
  --> max chng: dpmx=   6.1133E-01 dtmpmx=   7.6816E-02

== TH FLOW =====================================================================
 Step     39 Time=  1.35000E+00 Dt=  5.00000E-02 [y] snes_conv_reason:   11
  newton =   1 [      40] linear =   104 [      4392] cuts =  0 [   0]
  --> max chng: dpmx=   6.2960E-01 dtmpmx=   7.3939E-02

== TH FLOW =====================================================================
 Step     40 Time=  1.40000E+00 Dt=  5.00000E-02 [y] snes_conv_reason:   11
  newton =   1 [      41] linear =    98 [      4490] cuts =  0 [   0]
  --> max chng: dpmx=   6.4300E-01 dtmpmx=   7.1255E-02

== TH FLOW =====================================================================
 Step     41 Time=  1.45000E+00 Dt=  5.00000E-02 [y] snes_conv_reason:   11
  newton =   1 [      42] linear =   100 [      4590] cuts =  0 [   0]
  --> max chng: dpmx=   6.4996E-01 dtmpmx=   6.8746E-02

== TH FLOW =====================================================================
 Step     42 Time=  1.50000E+00 Dt=  5.00000E-02 [y] snes_conv_reason:   11
  newton =   1 [      43] linear =   101 [      4691] cuts =  0 [   0]
  --> max chng: dpmx=   6.4944E-01 dtmpmx=   6.6395E-02

== TH FLOW =====================================================================
 Step     43 Time=  1.55000E+00 Dt=  5.00000E-02 [y] snes_conv_reason:   11
  newton =   1 [      44] linear =   109 [      4800] cuts =  0 [   0]
  --> max chng: dpmx=   6.4038E-01 dtmpmx=   6.4187E-02

== TH FLOW =====================================================================
 Step     44 Time=  1.60000E+00 Dt=  5.00000E-02 [y] snes_conv_reason:   11
  newton =   1 [      45] linear =   106 [      4906] cuts =  0 [   0]
  --> max chng: dpmx=   6.2231E-01 dtmpmx=   6.2109E-02

== TH FLOW =====================================================================
 Step     45 Time=  1.65000E+00 Dt=  5.00000E-02 [y] snes_conv_reason:   11
  newton =   1 [      46] linear =   106 [      5012] cuts =  0 [   0]
  --> max chng: dpmx=   5.9533E-01 dtmpmx=   6.0154E-02

== TH FLOW =====================================================================
 Step     46 Time=  1.70000E+00 Dt=  5.00000E-02 [y] snes_conv_reason:   11
  newton =   1 [      47] linear =   111 [      5123] cuts =  0 [   0]
  --> max chng: dpmx=   5.5980E-01 dtmpmx=   5.8310E-02

== TH FLOW =====================================================================
 Step     47 Time=  1.75000E+00 Dt=  5.00000E-02 [y] snes_conv_reason:   11
  newton =   1 [      48] linear =   107 [      5230] cuts =  0 [   0]
  --> max chng: dpmx=   5.1705E-01 dtmpmx=   5.6565E-02

== TH FLOW =====================================================================
 Step     48 Time=  1.80000E+00 Dt=  5.00000E-02 [y] snes_conv_reason:   11
  newton =   1 [      49] linear =    98 [      5328] cuts =  0 [   0]
  --> max chng: dpmx=   4.6867E-01 dtmpmx=   5.4912E-02

== TH FLOW =====================================================================
 Step     49 Time=  1.85000E+00 Dt=  5.00000E-02 [y] snes_conv_reason:   11
  newton =   1 [      50] linear =   111 [      5439] cuts =  0 [   0]
  --> max chng: dpmx=   4.1702E-01 dtmpmx=   5.3345E-02

== TH FLOW =====================================================================
 Step     50 Time=  1.90000E+00 Dt=  5.00000E-02 [y] snes_conv_reason:   11
  newton =   1 [      51] linear =   110 [      5549] cuts =  0 [   0]
  --> max chng: dpmx=   3.6346E-01 dtmpmx=   5.1573E-02

== TH FLOW =====================================================================
 Step     51 Time=  1.95000E+00 Dt=  5.00000E-02 [y] snes_conv_reason:   11
  newton =   1 [      52] linear =   113 [      5662] cuts =  0 [   0]
  --> max chng: dpmx=   3.1082E-01 dtmpmx=   4.8728E-02

== TH FLOW =====================================================================
 Step     52 Time=  2.00000E+00 Dt=  5.00000E-02 [y] snes_conv_reason:   11
  newton =   1 [      53] linear =   112 [      5774] cuts =  0 [   0]
  --> max chng: dpmx=   2.6058E-01 dtmpmx=   4.4853E-02

== TH FLOW =====================================================================
 Step     53 Time=  2.05000E+00 Dt=  5.00000E-02 [y] snes_conv_reason:   11
  newton =   1 [      54] linear =   116 [      5890] cuts =  0 [   0]
  --> max chng: dpmx=   2.1418E-01 dtmpmx=   4.0219E-02

== TH FLOW =====================================================================
 Step     54 Time=  2.10000E+00 Dt=  5.00000E-02 [y] snes_conv_reason:   11
  newton =   1 [      55] linear =   116 [      6006] cuts =  0 [   0]
  --> max chng: dpmx=   1.7267E-01 dtmpmx=   3.5166E-02

== TH FLOW =====================================================================
 Step     55 Time=  2.15000E+00 Dt=  5.00000E-02 [y] snes_conv_reason:   11
  newton =   1 [      56] linear =   116 [      6122] cuts =  0 [   0]
  --> max chng: dpmx=   1.3648E-01 dtmpmx=   3.0010E-02

== TH FLOW =====================================================================
 Step     56 Time=  2.20000E+00 Dt=  5.00000E-02 [y] snes_conv_reason:   11
  newton =   1 [      57] linear =   119 [      6241] cuts =  0 [   0]
  --> max chng: dpmx=   1.0591E-01 dtmpmx=   2.5017E-02

== TH FLOW =====================================================================
 Step     57 Time=  2.25000E+00 Dt=  5.00000E-02 [y] snes_conv_reason:   11
  newton =   1 [      58] linear =   118 [      6359] cuts =  0 [   0]
  --> max chng: dpmx=   8.0630E-02 dtmpmx=   2.0389E-02

== TH FLOW =====================================================================
 Step     58 Time=  2.30000E+00 Dt=  5.00000E-02 [y] snes_conv_reason:   11
  newton =   1 [      59] linear =   118 [      6477] cuts =  0 [   0]
  --> max chng: dpmx=   6.0270E-02 dtmpmx=   1.6259E-02

== TH FLOW =====================================================================
 Step     59 Time=  2.35000E+00 Dt=  5.00000E-02 [y] snes_conv_reason:   11
  newton =   1 [      60] linear =   120 [      6597] cuts =  0 [   0]
  --> max chng: dpmx=   4.4229E-02 dtmpmx=   1.2695E-02

== TH FLOW =====================================================================
 Step     60 Time=  2.40000E+00 Dt=  5.00000E-02 [y] snes_conv_reason:   11
  newton =   1 [      61] linear =   119 [      6716] cuts =  0 [   0]
  --> max chng: dpmx=   3.1875E-02 dtmpmx=   9.7103E-03

== TH FLOW =====================================================================
 Step     61 Time=  2.45000E+00 Dt=  5.00000E-02 [y] snes_conv_reason:   11
  newton =   1 [      62] linear =   121 [      6837] cuts =  0 [   0]
  --> max chng: dpmx=   2.2567E-02 dtmpmx=   7.2805E-03

== TH FLOW =====================================================================
 Step     62 Time=  2.50000E+00 Dt=  5.00000E-02 [y] snes_conv_reason:   11
  newton =   1 [      63] linear =   120 [      6957] cuts =  0 [   0]
  --> max chng: dpmx=   1.5681E-02 dtmpmx=   5.3530E-03

== TH FLOW =====================================================================
 Step     63 Time=  2.55000E+00 Dt=  5.00000E-02 [y] snes_conv_reason:   11
  newton =   1 [      64] linear =   122 [      7079] cuts =  0 [   0]
  --> max chng: dpmx=   1.0701E-02 dtmpmx=   3.8606E-03

== TH FLOW =====================================================================
 Step     64 Time=  2.60000E+00 Dt=  5.00000E-02 [y] snes_conv_reason:   11
  newton =   1 [      65] linear =   121 [      7200] cuts =  0 [   0]
  --> max chng: dpmx=   7.1574E-03 dtmpmx=   2.7314E-03

== TH FLOW =====================================================================
 Step     65 Time=  2.65000E+00 Dt=  5.00000E-02 [y] snes_conv_reason:   11
  newton =   1 [      66] linear =   121 [      7321] cuts =  0 [   0]
  --> max chng: dpmx=   4.6908E-03 dtmpmx=   1.8954E-03

== TH FLOW =====================================================================
 Step     66 Time=  2.70000E+00 Dt=  5.00000E-02 [y] snes_conv_reason:   11
  newton =   1 [      67] linear =   123 [      7444] cuts =  0 [   0]
  --> max chng: dpmx=   3.0032E-03 dtmpmx=   1.2894E-03

== TH FLOW =====================================================================
 Step     67 Time=  2.75000E+00 Dt=  5.00000E-02 [y] snes_conv_reason:   11
  newton =   1 [      68] linear =   130 [      7574] cuts =  0 [   0]
  --> max chng: dpmx=   1.8712E-03 dtmpmx=   8.5874E-04

== TH FLOW =====================================================================
 Step     68 Time=  2.80000E+00 Dt=  5.00000E-02 [y] snes_conv_reason:   11
  newton =   1 [      69] linear =   123 [      7697] cuts =  0 [   0]
  --> max chng: dpmx=   1.1281E-03 dtmpmx=   5.5863E-04

== TH FLOW =====================================================================
 Step     69 Time=  2.85000E+00 Dt=  5.00000E-02 [y] snes_conv_reason:   11
  newton =   1 [      70] linear =   123 [      7820] cuts =  0 [   0]
  --> max chng: dpmx=   6.5092E-04 dtmpmx=   3.5344E-04

== TH FLOW =====================================================================
 Step     70 Time=  2.90000E+00 Dt=  5.00000E-02 [y] snes_conv_reason:   11
  newton =   1 [      71] linear =   122 [      7942] cuts =  0 [   0]
  --> max chng: dpmx=   3.5479E-04 dtmpmx=   2.1574E-04

== TH FLOW =====================================================================
 Step     71 Time=  2.95000E+00 Dt=  5.00000E-02 [y] snes_conv_reason:   11
  newton =   1 [      72] linear =   121 [      8063] cuts =  0 [   0]
  --> max chng: dpmx=   1.9150E-04 dtmpmx=   1.2508E-04

== TH FLOW =====================================================================
 Step     72 Time=  3.00000E+00 Dt=  5.00000E-02 [y] snes_conv_reason:   11
  newton =   1 [      73] linear =   120 [      8183] cuts =  0 [   0]
  --> max chng: dpmx=   2.4311E-04 dtmpmx=   6.6571E-05

== TH FLOW =====================================================================
 Step     73 Time=  3.05000E+00 Dt=  5.00000E-02 [y] snes_conv_reason:   11
  newton =   1 [      74] linear =   117 [      8300] cuts =  0 [   0]
  --> max chng: dpmx=   2.6705E-04 dtmpmx=   2.9627E-05

== TH FLOW =====================================================================
 Step     74 Time=  3.10000E+00 Dt=  5.00000E-02 [y] snes_conv_reason:   11
  newton =   1 [      75] linear =   114 [      8414] cuts =  0 [   0]
  --> max chng: dpmx=   2.7202E-04 dtmpmx=   2.3312E-05

== TH FLOW =====================================================================
 Step     75 Time=  3.15000E+00 Dt=  5.00000E-02 [y] snes_conv_reason:   11
  newton =   1 [      76] linear =   110 [      8524] cuts =  0 [   0]
  --> max chng: dpmx=   2.6462E-04 dtmpmx=   2.2571E-05

== TH FLOW =====================================================================
 Step     76 Time=  3.20000E+00 Dt=  5.00000E-02 [y] snes_conv_reason:   11
  newton =   1 [      77] linear =   106 [      8630] cuts =  0 [   0]
  --> max chng: dpmx=   2.4958E-04 dtmpmx=   2.1849E-05

== TH FLOW =====================================================================
 Step     77 Time=  3.25000E+00 Dt=  5.00000E-02 [y] snes_conv_reason:   11
  newton =   1 [      78] linear =   100 [      8730] cuts =  0 [   0]
  --> max chng: dpmx=   2.3035E-04 dtmpmx=   2.1142E-05

== TH FLOW =====================================================================
 Step     78 Time=  3.30000E+00 Dt=  5.00000E-02 [y] snes_conv_reason:   11
  newton =   1 [      79] linear =   107 [      8837] cuts =  0 [   0]
  --> max chng: dpmx=   2.0910E-04 dtmpmx=   2.0450E-05

== TH FLOW =====================================================================
 Step     79 Time=  3.35000E+00 Dt=  5.00000E-02 [y] snes_conv_reason:   11
  newton =   1 [      80] linear =   105 [      8942] cuts =  0 [   0]
  --> max chng: dpmx=   1.8723E-04 dtmpmx=   1.9779E-05

== TH FLOW =====================================================================
 Step     80 Time=  3.40000E+00 Dt=  5.00000E-02 [y] snes_conv_reason:   11
  newton =   1 [      81] linear =   114 [      9056] cuts =  0 [   0]
  --> max chng: dpmx=   1.6564E-04 dtmpmx=   1.8942E-05

== TH FLOW =====================================================================
 Step     81 Time=  3.45000E+00 Dt=  5.00000E-02 [y] snes_conv_reason:   11
  newton =   1 [      82] linear =   113 [      9169] cuts =  0 [   0]
  --> max chng: dpmx=   1.4505E-04 dtmpmx=   1.7734E-05

== TH FLOW =====================================================================
 Step     82 Time=  3.50000E+00 Dt=  5.00000E-02 [y] snes_conv_reason:   11
  newton =   1 [      83] linear =   113 [      9282] cuts =  0 [   0]
  --> max chng: dpmx=   1.2577E-04 dtmpmx=   1.6267E-05

== TH FLOW =====================================================================
 Step     83 Time=  3.55000E+00 Dt=  5.00000E-02 [y] snes_conv_reason:   11
  newton =   1 [      84] linear =   116 [      9398] cuts =  0 [   0]
  --> max chng: dpmx=   1.0799E-04 dtmpmx=   1.4683E-05

== TH FLOW =====================================================================
 Step     84 Time=  3.60000E+00 Dt=  5.00000E-02 [y] snes_conv_reason:   11
  newton =   1 [      85] linear =   116 [      9514] cuts =  0 [   0]
  --> max chng: dpmx=   9.1877E-05 dtmpmx=   1.3076E-05

== TH FLOW =====================================================================
 Step     85 Time=  3.65000E+00 Dt=  5.00000E-02 [y] snes_conv_reason:   11
  newton =   1 [      86] linear =   119 [      9633] cuts =  0 [   0]
  --> max chng: dpmx=   7.7453E-05 dtmpmx=   1.1506E-05

== TH FLOW =====================================================================
 Step     86 Time=  3.70000E+00 Dt=  5.00000E-02 [y] snes_conv_reason:   11
  newton =   1 [      87] linear =   114 [      9747] cuts =  0 [   0]
  --> max chng: dpmx=   6.4673E-05 dtmpmx=   1.0012E-05

== TH FLOW =====================================================================
 Step     87 Time=  3.75000E+00 Dt=  5.00000E-02 [y] snes_conv_reason:   11
  newton =   1 [      88] linear =   116 [      9863] cuts =  0 [   0]
  --> max chng: dpmx=   5.3539E-05 dtmpmx=   8.6204E-06

== TH FLOW =====================================================================
 Step     88 Time=  3.80000E+00 Dt=  5.00000E-02 [y] snes_conv_reason:   11
  newton =   1 [      89] linear =   117 [      9980] cuts =  0 [   0]
  --> max chng: dpmx=   4.3902E-05 dtmpmx=   7.3457E-06

== TH FLOW =====================================================================
 Step     89 Time=  3.85000E+00 Dt=  5.00000E-02 [y] snes_conv_reason:   11
  newton =   1 [      90] linear =   118 [     10098] cuts =  0 [   0]
  --> max chng: dpmx=   3.5675E-05 dtmpmx=   6.1961E-06

== TH FLOW =====================================================================
 Step     90 Time=  3.90000E+00 Dt=  5.00000E-02 [y] snes_conv_reason:   11
  newton =   1 [      91] linear =   115 [     10213] cuts =  0 [   0]
  --> max chng: dpmx=   2.8702E-05 dtmpmx=   5.1740E-06

== TH FLOW =====================================================================
 Step     91 Time=  3.95000E+00 Dt=  5.00000E-02 [y] snes_conv_reason:   11
  newton =   1 [      92] linear =   118 [     10331] cuts =  0 [   0]
  --> max chng: dpmx=   2.2900E-05 dtmpmx=   4.2772E-06

== TH FLOW =====================================================================
 Step     92 Time=  4.00000E+00 Dt=  5.00000E-02 [y] snes_conv_reason:   11
  newton =   1 [      93] linear =   115 [     10446] cuts =  0 [   0]
  --> max chng: dpmx=   1.8081E-05 dtmpmx=   3.5005E-06

== TH FLOW =====================================================================
 Step     93 Time=  4.05000E+00 Dt=  5.00000E-02 [y] snes_conv_reason:   11
  newton =   1 [      94] linear =   108 [     10554] cuts =  0 [   0]
  --> max chng: dpmx=   1.4147E-05 dtmpmx=   2.8360E-06

== TH FLOW =====================================================================
 Step     94 Time=  4.10000E+00 Dt=  5.00000E-02 [y] snes_conv_reason:   11
  newton =   1 [      95] linear =   115 [     10669] cuts =  0 [   0]
  --> max chng: dpmx=   1.0950E-05 dtmpmx=   2.2745E-06

== TH FLOW =====================================================================
 Step     95 Time=  4.15000E+00 Dt=  5.00000E-02 [y] snes_conv_reason:   11
  newton =   1 [      96] linear =   118 [     10787] cuts =  0 [   0]
  --> max chng: dpmx=   8.3984E-06 dtmpmx=   1.8057E-06

== TH FLOW =====================================================================
 Step     96 Time=  4.20000E+00 Dt=  5.00000E-02 [y] snes_conv_reason:   11
  newton =   1 [      97] linear =   117 [     10904] cuts =  0 [   0]
  --> max chng: dpmx=   6.3726E-06 dtmpmx=   1.4187E-06

== TH FLOW =====================================================================
 Step     97 Time=  4.25000E+00 Dt=  5.00000E-02 [y] snes_conv_reason:   11
  newton =   1 [      98] linear =   116 [     11020] cuts =  0 [   0]
  --> max chng: dpmx=   4.7804E-06 dtmpmx=   1.1029E-06

== TH FLOW =====================================================================
 Step     98 Time=  4.30000E+00 Dt=  5.00000E-02 [y] snes_conv_reason:   11
  newton =   1 [      99] linear =   120 [     11140] cuts =  0 [   0]
  --> max chng: dpmx=   3.5467E-06 dtmpmx=   8.4820E-07

== TH FLOW =====================================================================
 Step     99 Time=  4.35000E+00 Dt=  5.00000E-02 [y] snes_conv_reason:   11
  newton =   1 [     100] linear =   119 [     11259] cuts =  0 [   0]
  --> max chng: dpmx=   2.5983E-06 dtmpmx=   6.4507E-07

== TH FLOW =====================================================================
 Step    100 Time=  4.40000E+00 Dt=  5.00000E-02 [y] snes_conv_reason:   11
  newton =   1 [     101] linear =   118 [     11377] cuts =  0 [   0]
  --> max chng: dpmx=   1.8781E-06 dtmpmx=   4.8488E-07

== TH FLOW =====================================================================
 Step    101 Time=  4.45000E+00 Dt=  5.00000E-02 [y] snes_conv_reason:   11
  newton =   1 [     102] linear =   120 [     11497] cuts =  0 [   0]
  --> max chng: dpmx=   1.3376E-06 dtmpmx=   3.5997E-07

== TH FLOW =====================================================================
 Step    102 Time=  4.50000E+00 Dt=  5.00000E-02 [y] snes_conv_reason:   11
  newton =   1 [     103] linear =   121 [     11618] cuts =  0 [   0]
  --> max chng: dpmx=   9.3656E-07 dtmpmx=   2.6373E-07

== TH FLOW =====================================================================
 Step    103 Time=  4.55000E+00 Dt=  5.00000E-02 [y] snes_conv_reason:   11
  newton =   1 [     104] linear =   121 [     11739] cuts =  0 [   0]
  --> max chng: dpmx=   6.4285E-07 dtmpmx=   1.9031E-07

== TH FLOW =====================================================================
 Step    104 Time=  4.60000E+00 Dt=  5.00000E-02 [y] snes_conv_reason:   11
  newton =   1 [     105] linear =   126 [     11865] cuts =  0 [   0]
  --> max chng: dpmx=   4.3109E-07 dtmpmx=   1.3503E-07

== TH FLOW =====================================================================
 Step    105 Time=  4.65000E+00 Dt=  5.00000E-02 [y] snes_conv_reason:   11
  newton =   1 [     106] linear =   125 [     11990] cuts =  0 [   0]
  --> max chng: dpmx=   2.8068E-07 dtmpmx=   9.3966E-08

== TH FLOW =====================================================================
 Step    106 Time=  4.70000E+00 Dt=  5.00000E-02 [y] snes_conv_reason:   11
  newton =   1 [     107] linear =   123 [     12113] cuts =  0 [   0]
  --> max chng: dpmx=   1.7602E-07 dtmpmx=   6.3748E-08

== TH FLOW =====================================================================
 Step    107 Time=  4.75000E+00 Dt=  5.00000E-02 [y] snes_conv_reason:   11
  newton =   1 [     108] linear =   123 [     12236] cuts =  0 [   0]
  --> max chng: dpmx=   1.0512E-07 dtmpmx=   4.1900E-08

== TH FLOW =====================================================================
 Step    108 Time=  4.80000E+00 Dt=  5.00000E-02 [y] snes_conv_reason:   11
  newton =   1 [     109] linear =   124 [     12360] cuts =  0 [   0]
  --> max chng: dpmx=   5.8790E-08 dtmpmx=   2.6290E-08

== TH FLOW =====================================================================
 Step    109 Time=  4.85000E+00 Dt=  5.00000E-02 [y] snes_conv_reason:   11
  newton =   1 [     110] linear =   120 [     12480] cuts =  0 [   0]
  --> max chng: dpmx=   3.6205E-08 dtmpmx=   1.5411E-08

== TH FLOW =====================================================================
 Step    110 Time=  4.90000E+00 Dt=  5.00000E-02 [y] snes_conv_reason:   11
  newton =   1 [     111] linear =   120 [     12600] cuts =  0 [   0]
  --> max chng: dpmx=   4.5169E-08 dtmpmx=   7.9039E-09

== TH FLOW =====================================================================
 Step    111 Time=  4.95000E+00 Dt=  5.00000E-02 [y] snes_conv_reason:   11
  newton =   1 [     112] linear =   120 [     12720] cuts =  0 [   0]
  --> max chng: dpmx=   4.9244E-08 dtmpmx=   4.9081E-09

== TH FLOW =====================================================================
 Step    112 Time=  5.00000E+00 Dt=  5.00000E-02 [y] snes_conv_reason:   11
  newton =   1 [     113] linear =   111 [     12831] cuts =  0 [   0]
  --> max chng: dpmx=   4.9593E-08 dtmpmx=   4.6825E-09

== TH FLOW =====================================================================
 Step    113 Time=  5.05000E+00 Dt=  5.00000E-02 [y] snes_conv_reason:   11
  newton =   1 [     114] linear =   112 [     12943] cuts =  0 [   0]
  --> max chng: dpmx=   4.7614E-08 dtmpmx=   4.5311E-09

== TH FLOW =====================================================================
 Step    114 Time=  5.10000E+00 Dt=  5.00000E-02 [y] snes_conv_reason:   11
  newton =   1 [     115] linear =   111 [     13054] cuts =  0 [   0]
  --> max chng: dpmx=   4.4121E-08 dtmpmx=   4.3192E-09

== TH FLOW =====================================================================
 Step    115 Time=  5.15000E+00 Dt=  5.00000E-02 [y] snes_conv_reason:   11
  newton =   1 [     116] linear =   101 [     13155] cuts =  0 [   0]
  --> max chng: dpmx=   3.9930E-08 dtmpmx=   4.1538E-09

== TH FLOW =====================================================================
 Step    116 Time=  5.20000E+00 Dt=  5.00000E-02 [y] snes_conv_reason:   11
  newton =   1 [     117] linear =   112 [     13267] cuts =  0 [   0]
  --> max chng: dpmx=   3.5274E-08 dtmpmx=   3.9989E-09

== TH FLOW =====================================================================
 Step    117 Time=  5.25000E+00 Dt=  5.00000E-02 [y] snes_conv_reason:   11
  newton =   1 [     118] linear =   112 [     13379] cuts =  0 [   0]
  --> max chng: dpmx=   3.0734E-08 dtmpmx=   3.8306E-09

== TH FLOW =====================================================================
 Step    118 Time=  5.30000E+00 Dt=  5.00000E-02 [y] snes_conv_reason:   11
  newton =   1 [     119] linear =   117 [     13496] cuts =  0 [   0]
  --> max chng: dpmx=   2.6543E-08 dtmpmx=   3.5709E-09

== TH FLOW =====================================================================
 Step    119 Time=  5.35000E+00 Dt=  5.00000E-02 [y] snes_conv_reason:   11
  newton =   1 [     120] linear =   112 [     13608] cuts =  0 [   0]
  --> max chng: dpmx=   2.2468E-08 dtmpmx=   3.2359E-09

== TH FLOW =====================================================================
 Step    120 Time=  5.40000E+00 Dt=  5.00000E-02 [y] snes_conv_reason:   11
  newton =   1 [     121] linear =   122 [     13730] cuts =  0 [   0]
  --> max chng: dpmx=   1.9092E-08 dtmpmx=   2.7982E-09

== TH FLOW =====================================================================
 Step    121 Time=  5.45000E+00 Dt=  5.00000E-02 [y] snes_conv_reason:   11
  newton =   1 [     122] linear =   116 [     13846] cuts =  0 [   0]
  --> max chng: dpmx=   1.5832E-08 dtmpmx=   2.4887E-09

== TH FLOW =====================================================================
 Step    122 Time=  5.50000E+00 Dt=  5.00000E-02 [y] snes_conv_reason:   11
  newton =   1 [     123] linear =   117 [     13963] cuts =  0 [   0]
  --> max chng: dpmx=   1.3155E-08 dtmpmx=   2.1636E-09

== TH FLOW =====================================================================
 Step    123 Time=  5.55000E+00 Dt=  5.00000E-02 [y] snes_conv_reason:   11
  newton =   1 [     124] linear =   118 [     14081] cuts =  0 [   0]
  --> max chng: dpmx=   1.0710E-08 dtmpmx=   1.8125E-09

== TH FLOW =====================================================================
 Step    124 Time=  5.60000E+00 Dt=  5.00000E-02 [y] snes_conv_reason:   11
  newton =   1 [     125] linear =   118 [     14199] cuts =  0 [   0]
  --> max chng: dpmx=   8.8476E-09 dtmpmx=   1.5001E-09

== TH FLOW =====================================================================
 Step    125 Time=  5.65000E+00 Dt=  5.00000E-02 [y] snes_conv_reason:   11
  newton =   1 [     126] linear =   119 [     14318] cuts =  0 [   0]
  --> max chng: dpmx=   7.1013E-09 dtmpmx=   1.2831E-09

== TH FLOW =====================================================================
 Step    126 Time=  5.70000E+00 Dt=  5.00000E-02 [y] snes_conv_reason:   11
  newton =   1 [     127] linear =   117 [     14435] cuts =  0 [   0]
  --> max chng: dpmx=   5.7044E-09 dtmpmx=   1.0431E-09

== TH FLOW =====================================================================
 Step    127 Time=  5.75000E+00 Dt=  5.00000E-02 [y] snes_conv_reason:   11
  newton =   1 [     128] linear =   118 [     14553] cuts =  0 [   0]
  --> max chng: dpmx=   4.6566E-09 dtmpmx=   8.8504E-10

== TH FLOW =====================================================================
 Step    128 Time=  5.80000E+00 Dt=  5.00000E-02 [y] snes_conv_reason:   11
  newton =   1 [     129] linear =   116 [     14669] cuts =  0 [   0]
  --> max chng: dpmx=   3.7253E-09 dtmpmx=   6.8095E-10

== TH FLOW =====================================================================
 Step    129 Time=  5.85000E+00 Dt=  5.00000E-02 [y] snes_conv_reason:   11
  newton =   1 [     130] linear =   118 [     14787] cuts =  0 [   0]
  --> max chng: dpmx=   2.9104E-09 dtmpmx=   5.8090E-10

== TH FLOW =====================================================================
 Step    130 Time=  5.90000E+00 Dt=  5.00000E-02 [y] snes_conv_reason:   11
  newton =   1 [     131] linear =   119 [     14906] cuts =  0 [   0]
  --> max chng: dpmx=   2.3283E-09 dtmpmx=   4.5337E-10

== TH FLOW =====================================================================
 Step    131 Time=  5.95000E+00 Dt=  5.00000E-02 [y] snes_conv_reason:   11
  newton =   1 [     132] linear =   119 [     15025] cuts =  0 [   0]
  --> max chng: dpmx=   1.7462E-09 dtmpmx=   3.9439E-10

== TH FLOW =====================================================================
 Step    132 Time=  6.00000E+00 Dt=  5.00000E-02 [y] snes_conv_reason:   11
  newton =   1 [     133] linear =   107 [     15132] cuts =  0 [   0]
  --> max chng: dpmx=   1.3970E-09 dtmpmx=   2.8830E-10

== TH FLOW =====================================================================
 Step    133 Time=  6.05000E+00 Dt=  5.00000E-02 [y] snes_conv_reason:   11
  newton =   1 [     134] linear =   121 [     15253] cuts =  0 [   0]
  --> max chng: dpmx=   1.1642E-09 dtmpmx=   2.4888E-10

== TH FLOW =====================================================================
 Step    134 Time=  6.10000E+00 Dt=  5.00000E-02 [y] snes_conv_reason:   11
  newton =   1 [     135] linear =   123 [     15376] cuts =  0 [   0]
  --> max chng: dpmx=   8.1491E-10 dtmpmx=   1.8025E-10

== TH FLOW =====================================================================
 Step    135 Time=  6.15000E+00 Dt=  5.00000E-02 [y] snes_conv_reason:   11
  newton =   1 [     136] linear =   117 [     15493] cuts =  0 [   0]
  --> max chng: dpmx=   6.9849E-10 dtmpmx=   1.4449E-10

== TH FLOW =====================================================================
 Step    136 Time=  6.20000E+00 Dt=  5.00000E-02 [y] snes_conv_reason:   11
  newton =   1 [     137] linear =   118 [     15611] cuts =  0 [   0]
  --> max chng: dpmx=   5.8208E-10 dtmpmx=   1.3355E-10

== TH FLOW =====================================================================
 Step    137 Time=  6.25000E+00 Dt=  5.00000E-02 [y] snes_conv_reason:   11
  newton =   1 [     138] linear =   119 [     15730] cuts =  0 [   0]
  --> max chng: dpmx=   4.6566E-10 dtmpmx=   1.1413E-10

== TH FLOW =====================================================================
 Step    138 Time=  6.30000E+00 Dt=  5.00000E-02 [y] snes_conv_reason:   11
  newton =   1 [     139] linear =   109 [     15839] cuts =  0 [   0]
  --> max chng: dpmx=   3.4925E-10 dtmpmx=   9.8701E-11

== TH FLOW =====================================================================
 Step    139 Time=  6.35000E+00 Dt=  5.00000E-02 [y] snes_conv_reason:   11
  newton =   1 [     140] linear =   111 [     15950] cuts =  0 [   0]
  --> max chng: dpmx=   2.3283E-10 dtmpmx=   9.6870E-11

== TH FLOW =====================================================================
 Step    140 Time=  6.40000E+00 Dt=  5.00000E-02 [y] snes_conv_reason:   11
  newton =   1 [     141] linear =   106 [     16056] cuts =  0 [   0]
  --> max chng: dpmx=   2.3283E-10 dtmpmx=   1.0179E-10

== TH FLOW =====================================================================
 Step    141 Time=  6.45000E+00 Dt=  5.00000E-02 [y] snes_conv_reason:   11
  newton =   1 [     142] linear =   118 [     16174] cuts =  0 [   0]
  --> max chng: dpmx=   2.3283E-10 dtmpmx=   9.3157E-11

== TH FLOW =====================================================================
 Step    142 Time=  6.50000E+00 Dt=  5.00000E-02 [y] snes_conv_reason:   11
  newton =   1 [     143] linear =   116 [     16290] cuts =  0 [   0]
  --> max chng: dpmx=   2.3283E-10 dtmpmx=   9.3703E-11

== TH FLOW =====================================================================
 Step    143 Time=  6.55000E+00 Dt=  5.00000E-02 [y] snes_conv_reason:   11
  newton =   1 [     144] linear =   109 [     16399] cuts =  0 [   0]
  --> max chng: dpmx=   2.3283E-10 dtmpmx=   9.2905E-11

== TH FLOW =====================================================================
 Step    144 Time=  6.60000E+00 Dt=  5.00000E-02 [y] snes_conv_reason:   11
  newton =   1 [     145] linear =   113 [     16512] cuts =  0 [   0]
  --> max chng: dpmx=   2.3283E-10 dtmpmx=   1.0005E-10

== TH FLOW =====================================================================
 Step    145 Time=  6.65000E+00 Dt=  5.00000E-02 [y] snes_conv_reason:   11
  newton =   1 [     146] linear =    85 [     16597] cuts =  0 [   0]
  --> max chng: dpmx=   2.3283E-10 dtmpmx=   1.0603E-10

== TH FLOW =====================================================================
 Step    146 Time=  6.70000E+00 Dt=  5.00000E-02 [y] snes_conv_reason:   11
  newton =   1 [     147] linear =    88 [     16685] cuts =  0 [   0]
  --> max chng: dpmx=   1.1642E-10 dtmpmx=   9.8817E-11

== TH FLOW =====================================================================
 Step    147 Time=  6.75000E+00 Dt=  5.00000E-02 [y] snes_conv_reason:   11
  newton =   1 [     148] linear =    78 [     16763] cuts =  0 [   0]
  --> max chng: dpmx=   1.1642E-10 dtmpmx=   1.0273E-10

== TH FLOW =====================================================================
 Step    148 Time=  6.80000E+00 Dt=  5.00000E-02 [y] snes_conv_reason:   11
  newton =   1 [     149] linear =   103 [     16866] cuts =  0 [   0]
  --> max chng: dpmx=   2.3283E-10 dtmpmx=   9.4662E-11

== TH FLOW =====================================================================
 Step    149 Time=  6.85000E+00 Dt=  5.00000E-02 [y] snes_conv_reason:   11
  newton =   1 [     150] linear =    81 [     16947] cuts =  0 [   0]
  --> max chng: dpmx=   1.1642E-10 dtmpmx=   9.7627E-11

== TH FLOW =====================================================================
 Step    150 Time=  6.90000E+00 Dt=  5.00000E-02 [y] snes_conv_reason:   11
  newton =   1 [     151] linear =   102 [     17049] cuts =  0 [   0]
  --> max chng: dpmx=   2.3283E-10 dtmpmx=   1.0005E-10

== TH FLOW =====================================================================
 Step    151 Time=  6.95000E+00 Dt=  5.00000E-02 [y] snes_conv_reason:   11
  newton =   1 [     152] linear =    97 [     17146] cuts =  0 [   0]
  --> max chng: dpmx=   1.1642E-10 dtmpmx=   8.9569E-11

== TH FLOW =====================================================================
 Step    152 Time=  7.00000E+00 Dt=  5.00000E-02 [y] snes_conv_reason:   11
  newton =   1 [     153] linear =    92 [     17238] cuts =  0 [   0]
  --> max chng: dpmx=   2.3283E-10 dtmpmx=   1.0237E-10

== TH FLOW =====================================================================
 Step    153 Time=  7.05000E+00 Dt=  5.00000E-02 [y] snes_conv_reason:   11
  newton =   1 [     154] linear =    98 [     17336] cuts =  0 [   0]
  --> max chng: dpmx=   1.1642E-10 dtmpmx=   1.0967E-10

== TH FLOW =====================================================================
 Step    154 Time=  7.10000E+00 Dt=  5.00000E-02 [y] snes_conv_reason:   11
  newton =   1 [     155] linear =    95 [     17431] cuts =  0 [   0]
  --> max chng: dpmx=   2.3283E-10 dtmpmx=   1.0016E-10

== TH FLOW =====================================================================
 Step    155 Time=  7.15000E+00 Dt=  5.00000E-02 [y] snes_conv_reason:   11
  newton =   1 [     156] linear =    54 [     17485] cuts =  0 [   0]
  --> max chng: dpmx=   2.3283E-10 dtmpmx=   1.0163E-10

== TH FLOW =====================================================================
 Step    156 Time=  7.20000E+00 Dt=  5.00000E-02 [y] snes_conv_reason:   11
  newton =   1 [     157] linear =    73 [     17558] cuts =  0 [   0]
  --> max chng: dpmx=   2.3283E-10 dtmpmx=   9.8696E-11

== TH FLOW =====================================================================
 Step    157 Time=  7.25000E+00 Dt=  5.00000E-02 [y] snes_conv_reason:   11
  newton =   1 [     158] linear =    64 [     17622] cuts =  0 [   0]
  --> max chng: dpmx=   2.3283E-10 dtmpmx=   1.0836E-10

== TH FLOW =====================================================================
 Step    158 Time=  7.30000E+00 Dt=  5.00000E-02 [y] snes_conv_reason:   11
  newton =   1 [     159] linear =   122 [     17744] cuts =  0 [   0]
  --> max chng: dpmx=   2.3283E-10 dtmpmx=   9.9135E-11

== TH FLOW =====================================================================
 Step    159 Time=  7.35000E+00 Dt=  5.00000E-02 [y] snes_conv_reason:   11
  newton =   1 [     160] linear =    97 [     17841] cuts =  0 [   0]
  --> max chng: dpmx=   1.1642E-10 dtmpmx=   9.5751E-11

== TH FLOW =====================================================================
 Step    160 Time=  7.40000E+00 Dt=  5.00000E-02 [y] snes_conv_reason:   11
  newton =   1 [     161] linear =    83 [     17924] cuts =  0 [   0]
  --> max chng: dpmx=   1.1642E-10 dtmpmx=   1.0515E-10

== TH FLOW =====================================================================
 Step    161 Time=  7.45000E+00 Dt=  5.00000E-02 [y] snes_conv_reason:   11
  newton =   1 [     162] linear =    59 [     17983] cuts =  0 [   0]
  --> max chng: dpmx=   2.3283E-10 dtmpmx=   9.5010E-11

== TH FLOW =====================================================================
 Step    162 Time=  7.50000E+00 Dt=  5.00000E-02 [y] snes_conv_reason:   11
  newton =   1 [     163] linear =   123 [     18106] cuts =  0 [   0]
  --> max chng: dpmx=   1.1642E-10 dtmpmx=   8.7159E-11

== TH FLOW =====================================================================
 Step    163 Time=  7.55000E+00 Dt=  5.00000E-02 [y] snes_conv_reason:   11
  newton =   1 [     164] linear =   103 [     18209] cuts =  0 [   0]
  --> max chng: dpmx=   2.3283E-10 dtmpmx=   1.1065E-10

== TH FLOW =====================================================================
 Step    164 Time=  7.60000E+00 Dt=  5.00000E-02 [y] snes_conv_reason:   11
  newton =   1 [     165] linear =   114 [     18323] cuts =  0 [   0]
  --> max chng: dpmx=   2.3283E-10 dtmpmx=   1.0176E-10

== TH FLOW =====================================================================
 Step    165 Time=  7.65000E+00 Dt=  5.00000E-02 [y] snes_conv_reason:   11
  newton =   1 [     166] linear =    87 [     18410] cuts =  0 [   0]
  --> max chng: dpmx=   2.3283E-10 dtmpmx=   9.9437E-11

== TH FLOW =====================================================================
 Step    166 Time=  7.70000E+00 Dt=  5.00000E-02 [y] snes_conv_reason:   11
  newton =   1 [     167] linear =    99 [     18509] cuts =  0 [   0]
  --> max chng: dpmx=   2.3283E-10 dtmpmx=   1.1481E-10

== TH FLOW =====================================================================
 Step    167 Time=  7.75000E+00 Dt=  5.00000E-02 [y] snes_conv_reason:   11
  newton =   1 [     168] linear =    92 [     18601] cuts =  0 [   0]
  --> max chng: dpmx=   1.1642E-10 dtmpmx=   9.3548E-11

== TH FLOW =====================================================================
 Step    168 Time=  7.80000E+00 Dt=  5.00000E-02 [y] snes_conv_reason:   11
  newton =   1 [     169] linear =   107 [     18708] cuts =  0 [   0]
  --> max chng: dpmx=   2.3283E-10 dtmpmx=   9.6305E-11

== TH FLOW =====================================================================
 Step    169 Time=  7.85000E+00 Dt=  5.00000E-02 [y] snes_conv_reason:   11
  newton =   1 [     170] linear =   103 [     18811] cuts =  0 [   0]
  --> max chng: dpmx=   2.3283E-10 dtmpmx=   8.7001E-11

== TH FLOW =====================================================================
 Step    170 Time=  7.90000E+00 Dt=  5.00000E-02 [y] snes_conv_reason:   11
  newton =   1 [     171] linear =   114 [     18925] cuts =  0 [   0]
  --> max chng: dpmx=   2.3283E-10 dtmpmx=   8.9516E-11

== TH FLOW =====================================================================
 Step    171 Time=  7.95000E+00 Dt=  5.00000E-02 [y] snes_conv_reason:   11
  newton =   1 [     172] linear =    52 [     18977] cuts =  0 [   0]
  --> max chng: dpmx=   1.1642E-10 dtmpmx=   1.1160E-10

== TH FLOW =====================================================================
 Step    172 Time=  8.00000E+00 Dt=  5.00000E-02 [y] snes_conv_reason:   11
  newton =   1 [     173] linear =   111 [     19088] cuts =  0 [   0]
  --> max chng: dpmx=   2.3283E-10 dtmpmx=   9.4634E-11

== TH FLOW =====================================================================
 Step    173 Time=  8.05000E+00 Dt=  5.00000E-02 [y] snes_conv_reason:   11
  newton =   1 [     174] linear =   111 [     19199] cuts =  0 [   0]
  --> max chng: dpmx=   2.3283E-10 dtmpmx=   9.2504E-11

== TH FLOW =====================================================================
 Step    174 Time=  8.10000E+00 Dt=  5.00000E-02 [y] snes_conv_reason:   11
  newton =   1 [     175] linear =   108 [     19307] cuts =  0 [   0]
  --> max chng: dpmx=   2.3283E-10 dtmpmx=   9.5962E-11

== TH FLOW =====================================================================
 Step    175 Time=  8.15000E+00 Dt=  5.00000E-02 [y] snes_conv_reason:   11
  newton =   1 [     176] linear =   102 [     19409] cuts =  0 [   0]
  --> max chng: dpmx=   2.3283E-10 dtmpmx=   1.0942E-10

== TH FLOW =====================================================================
 Step    176 Time=  8.20000E+00 Dt=  5.00000E-02 [y] snes_conv_reason:   11
  newton =   1 [     177] linear =   122 [     19531] cuts =  0 [   0]
  --> max chng: dpmx=   2.3283E-10 dtmpmx=   9.5200E-11

== TH FLOW =====================================================================
 Step    177 Time=  8.25000E+00 Dt=  5.00000E-02 [y] snes_conv_reason:   11
  newton =   1 [     178] linear =   114 [     19645] cuts =  0 [   0]
  --> max chng: dpmx=   2.3283E-10 dtmpmx=   1.0419E-10

== TH FLOW =====================================================================
 Step    178 Time=  8.30000E+00 Dt=  5.00000E-02 [y] snes_conv_reason:   11
  newton =   1 [     179] linear =   117 [     19762] cuts =  0 [   0]
  --> max chng: dpmx=   2.3283E-10 dtmpmx=   9.3920E-11

== TH FLOW =====================================================================
 Step    179 Time=  8.35000E+00 Dt=  5.00000E-02 [y] snes_conv_reason:   11
  newton =   1 [     180] linear =   118 [     19880] cuts =  0 [   0]
  --> max chng: dpmx=   2.3283E-10 dtmpmx=   9.3404E-11

== TH FLOW =====================================================================
 Step    180 Time=  8.40000E+00 Dt=  5.00000E-02 [y] snes_conv_reason:   11
  newton =   1 [     181] linear =    93 [     19973] cuts =  0 [   0]
  --> max chng: dpmx=   2.3283E-10 dtmpmx=   9.7643E-11

== TH FLOW =====================================================================
 Step    181 Time=  8.45000E+00 Dt=  5.00000E-02 [y] snes_conv_reason:   11
  newton =   1 [     182] linear =    94 [     20067] cuts =  0 [   0]
  --> max chng: dpmx=   2.3283E-10 dtmpmx=   1.1543E-10

== TH FLOW =====================================================================
 Step    182 Time=  8.50000E+00 Dt=  5.00000E-02 [y] snes_conv_reason:   11
  newton =   1 [     183] linear =   109 [     20176] cuts =  0 [   0]
  --> max chng: dpmx=   1.1642E-10 dtmpmx=   1.0699E-10

== TH FLOW =====================================================================
 Step    183 Time=  8.55000E+00 Dt=  5.00000E-02 [y] snes_conv_reason:   11
  newton =   1 [     184] linear =    93 [     20269] cuts =  0 [   0]
  --> max chng: dpmx=   1.1642E-10 dtmpmx=   9.4230E-11

== TH FLOW =====================================================================
 Step    184 Time=  8.60000E+00 Dt=  5.00000E-02 [y] snes_conv_reason:   11
  newton =   1 [     185] linear =    93 [     20362] cuts =  0 [   0]
  --> max chng: dpmx=   2.3283E-10 dtmpmx=   9.3175E-11

== TH FLOW =====================================================================
 Step    185 Time=  8.65000E+00 Dt=  5.00000E-02 [y] snes_conv_reason:   11
  newton =   1 [     186] linear =   105 [     20467] cuts =  0 [   0]
  --> max chng: dpmx=   2.3283E-10 dtmpmx=   9.2623E-11

== TH FLOW =====================================================================
 Step    186 Time=  8.70000E+00 Dt=  5.00000E-02 [y] snes_conv_reason:   11
  newton =   1 [     187] linear =   116 [     20583] cuts =  0 [   0]
  --> max chng: dpmx=   2.3283E-10 dtmpmx=   1.0465E-10

== TH FLOW =====================================================================
 Step    187 Time=  8.75000E+00 Dt=  5.00000E-02 [y] snes_conv_reason:   11
  newton =   1 [     188] linear =    80 [     20663] cuts =  0 [   0]
  --> max chng: dpmx=   2.3283E-10 dtmpmx=   9.4138E-11

== TH FLOW =====================================================================
 Step    188 Time=  8.80000E+00 Dt=  5.00000E-02 [y] snes_conv_reason:   11
  newton =   1 [     189] linear =   107 [     20770] cuts =  0 [   0]
  --> max chng: dpmx=   2.3283E-10 dtmpmx=   8.8090E-11

== TH FLOW =====================================================================
 Step    189 Time=  8.85000E+00 Dt=  5.00000E-02 [y] snes_conv_reason:   11
  newton =   1 [     190] linear =    76 [     20846] cuts =  0 [   0]
  --> max chng: dpmx=   1.1642E-10 dtmpmx=   9.0084E-11

== TH FLOW =====================================================================
 Step    190 Time=  8.90000E+00 Dt=  5.00000E-02 [y] snes_conv_reason:   11
  newton =   1 [     191] linear =    69 [     20915] cuts =  0 [   0]
  --> max chng: dpmx=   2.3283E-10 dtmpmx=   9.1216E-11

== TH FLOW =====================================================================
 Step    191 Time=  8.95000E+00 Dt=  5.00000E-02 [y] snes_conv_reason:   11
  newton =   1 [     192] linear =   101 [     21016] cuts =  0 [   0]
  --> max chng: dpmx=   2.3283E-10 dtmpmx=   9.2735E-11

== TH FLOW =====================================================================
 Step    192 Time=  9.00000E+00 Dt=  5.00000E-02 [y] snes_conv_reason:   11
  newton =   1 [     193] linear =   102 [     21118] cuts =  0 [   0]
  --> max chng: dpmx=   2.3283E-10 dtmpmx=   9.2486E-11

== TH FLOW =====================================================================
 Step    193 Time=  9.05000E+00 Dt=  5.00000E-02 [y] snes_conv_reason:   11
  newton =   1 [     194] linear =    88 [     21206] cuts =  0 [   0]
  --> max chng: dpmx=   2.3283E-10 dtmpmx=   1.0396E-10

== TH FLOW =====================================================================
 Step    194 Time=  9.10000E+00 Dt=  5.00000E-02 [y] snes_conv_reason:   11
  newton =   1 [     195] linear =   104 [     21310] cuts =  0 [   0]
  --> max chng: dpmx=   2.3283E-10 dtmpmx=   1.0444E-10

== TH FLOW =====================================================================
 Step    195 Time=  9.15000E+00 Dt=  5.00000E-02 [y] snes_conv_reason:   11
  newton =   1 [     196] linear =   108 [     21418] cuts =  0 [   0]
  --> max chng: dpmx=   2.3283E-10 dtmpmx=   9.8543E-11

== TH FLOW =====================================================================
 Step    196 Time=  9.20000E+00 Dt=  5.00000E-02 [y] snes_conv_reason:   11
  newton =   1 [     197] linear =    97 [     21515] cuts =  0 [   0]
  --> max chng: dpmx=   2.3283E-10 dtmpmx=   9.3353E-11

== TH FLOW =====================================================================
 Step    197 Time=  9.25000E+00 Dt=  5.00000E-02 [y] snes_conv_reason:   11
  newton =   1 [     198] linear =   117 [     21632] cuts =  0 [   0]
  --> max chng: dpmx=   1.1642E-10 dtmpmx=   9.8428E-11

== TH FLOW =====================================================================
 Step    198 Time=  9.30000E+00 Dt=  5.00000E-02 [y] snes_conv_reason:   11
  newton =   1 [     199] linear =    95 [     21727] cuts =  0 [   0]
  --> max chng: dpmx=   2.3283E-10 dtmpmx=   1.0303E-10

== TH FLOW =====================================================================
 Step    199 Time=  9.35000E+00 Dt=  5.00000E-02 [y] snes_conv_reason:   11
  newton =   1 [     200] linear =    90 [     21817] cuts =  0 [   0]
  --> max chng: dpmx=   2.3283E-10 dtmpmx=   9.9668E-11

== TH FLOW =====================================================================
 Step    200 Time=  9.40000E+00 Dt=  5.00000E-02 [y] snes_conv_reason:   11
  newton =   1 [     201] linear =   110 [     21927] cuts =  0 [   0]
  --> max chng: dpmx=   2.3283E-10 dtmpmx=   9.8280E-11

== TH FLOW =====================================================================
 Step    201 Time=  9.45000E+00 Dt=  5.00000E-02 [y] snes_conv_reason:   11
  newton =   1 [     202] linear =   106 [     22033] cuts =  0 [   0]
  --> max chng: dpmx=   2.3283E-10 dtmpmx=   9.2745E-11

== TH FLOW =====================================================================
 Step    202 Time=  9.50000E+00 Dt=  5.00000E-02 [y] snes_conv_reason:   11
  newton =   1 [     203] linear =   109 [     22142] cuts =  0 [   0]
  --> max chng: dpmx=   2.3283E-10 dtmpmx=   9.8446E-11

== TH FLOW =====================================================================
 Step    203 Time=  9.55000E+00 Dt=  5.00000E-02 [y] snes_conv_reason:   11
  newton =   1 [     204] linear =    91 [     22233] cuts =  0 [   0]
  --> max chng: dpmx=   2.3283E-10 dtmpmx=   9.9140E-11

== TH FLOW =====================================================================
 Step    204 Time=  9.60000E+00 Dt=  5.00000E-02 [y] snes_conv_reason:   11
  newton =   1 [     205] linear =   115 [     22348] cuts =  0 [   0]
  --> max chng: dpmx=   2.3283E-10 dtmpmx=   1.0765E-10

== TH FLOW =====================================================================
 Step    205 Time=  9.65000E+00 Dt=  5.00000E-02 [y] snes_conv_reason:   11
  newton =   1 [     206] linear =    83 [     22431] cuts =  0 [   0]
  --> max chng: dpmx=   2.3283E-10 dtmpmx=   9.3078E-11

== TH FLOW =====================================================================
 Step    206 Time=  9.70000E+00 Dt=  5.00000E-02 [y] snes_conv_reason:   11
  newton =   1 [     207] linear =    90 [     22521] cuts =  0 [   0]
  --> max chng: dpmx=   2.3283E-10 dtmpmx=   9.0747E-11

== TH FLOW =====================================================================
 Step    207 Time=  9.75000E+00 Dt=  5.00000E-02 [y] snes_conv_reason:   11
  newton =   1 [     208] linear =    88 [     22609] cuts =  0 [   0]
  --> max chng: dpmx=   2.3283E-10 dtmpmx=   1.0008E-10

== TH FLOW =====================================================================
 Step    208 Time=  9.80000E+00 Dt=  5.00000E-02 [y] snes_conv_reason:   11
  newton =   1 [     209] linear =   110 [     22719] cuts =  0 [   0]
  --> max chng: dpmx=   2.3283E-10 dtmpmx=   9.8153E-11

== TH FLOW =====================================================================
 Step    209 Time=  9.85000E+00 Dt=  5.00000E-02 [y] snes_conv_reason:   11
  newton =   1 [     210] linear =   101 [     22820] cuts =  0 [   0]
  --> max chng: dpmx=   1.1642E-10 dtmpmx=   9.9750E-11

== TH FLOW =====================================================================
 Step    210 Time=  9.90000E+00 Dt=  5.00000E-02 [y] snes_conv_reason:   11
  newton =   1 [     211] linear =    72 [     22892] cuts =  0 [   0]
  --> max chng: dpmx=   2.3283E-10 dtmpmx=   9.7810E-11

== TH FLOW =====================================================================
 Step    211 Time=  9.95000E+00 Dt=  5.00000E-02 [y] snes_conv_reason:   11
  newton =   1 [     212] linear =    66 [     22958] cuts =  0 [   0]
  --> max chng: dpmx=   2.3283E-10 dtmpmx=   1.0208E-10

== TH FLOW =====================================================================
 Step    212 Time=  1.00000E+01 Dt=  5.00000E-02 [y] snes_conv_reason:   11
  newton =   1 [     213] linear =    97 [     23055] cuts =  0 [   0]
  --> max chng: dpmx=   2.3283E-10 dtmpmx=   9.9918E-11

== TH FLOW =====================================================================
 Step    213 Time=  1.00500E+01 Dt=  5.00000E-02 [y] snes_conv_reason:   11
  newton =   1 [     214] linear =   115 [     23170] cuts =  0 [   0]
  --> max chng: dpmx=   2.3283E-10 dtmpmx=   9.6156E-11

== TH FLOW =====================================================================
 Step    214 Time=  1.01000E+01 Dt=  5.00000E-02 [y] snes_conv_reason:   11
  newton =   1 [     215] linear =    94 [     23264] cuts =  0 [   0]
  --> max chng: dpmx=   2.3283E-10 dtmpmx=   1.1103E-10

== TH FLOW =====================================================================
 Step    215 Time=  1.01500E+01 Dt=  5.00000E-02 [y] snes_conv_reason:   11
  newton =   1 [     216] linear =   104 [     23368] cuts =  0 [   0]
  --> max chng: dpmx=   2.3283E-10 dtmpmx=   1.0098E-10

== TH FLOW =====================================================================
 Step    216 Time=  1.02000E+01 Dt=  5.00000E-02 [y] snes_conv_reason:   11
  newton =   1 [     217] linear =   105 [     23473] cuts =  0 [   0]
  --> max chng: dpmx=   2.3283E-10 dtmpmx=   9.6335E-11

== TH FLOW =====================================================================
 Step    217 Time=  1.02500E+01 Dt=  5.00000E-02 [y] snes_conv_reason:   11
  newton =   1 [     218] linear =   101 [     23574] cuts =  0 [   0]
  --> max chng: dpmx=   2.3283E-10 dtmpmx=   9.9334E-11

== TH FLOW =====================================================================
 Step    218 Time=  1.03000E+01 Dt=  5.00000E-02 [y] snes_conv_reason:   11
  newton =   1 [     219] linear =   104 [     23678] cuts =  0 [   0]
  --> max chng: dpmx=   2.3283E-10 dtmpmx=   9.0598E-11

== TH FLOW =====================================================================
 Step    219 Time=  1.03500E+01 Dt=  5.00000E-02 [y] snes_conv_reason:   11
  newton =   1 [     220] linear =    97 [     23775] cuts =  0 [   0]
  --> max chng: dpmx=   2.3283E-10 dtmpmx=   1.0885E-10

== TH FLOW =====================================================================
 Step    220 Time=  1.04000E+01 Dt=  5.00000E-02 [y] snes_conv_reason:   11
  newton =   1 [     221] linear =   100 [     23875] cuts =  0 [   0]
  --> max chng: dpmx=   2.3283E-10 dtmpmx=   9.9766E-11

== TH FLOW =====================================================================
 Step    221 Time=  1.04500E+01 Dt=  5.00000E-02 [y] snes_conv_reason:   11
  newton =   1 [     222] linear =   100 [     23975] cuts =  0 [   0]
  --> max chng: dpmx=   1.1642E-10 dtmpmx=   1.0270E-10

== TH FLOW =====================================================================
 Step    222 Time=  1.05000E+01 Dt=  5.00000E-02 [y] snes_conv_reason:   11
  newton =   1 [     223] linear =   113 [     24088] cuts =  0 [   0]
  --> max chng: dpmx=   2.3283E-10 dtmpmx=   9.1095E-11

== TH FLOW =====================================================================
 Step    223 Time=  1.05500E+01 Dt=  5.00000E-02 [y] snes_conv_reason:   11
  newton =   1 [     224] linear =    85 [     24173] cuts =  0 [   0]
  --> max chng: dpmx=   2.3283E-10 dtmpmx=   1.0080E-10

== TH FLOW =====================================================================
 Step    224 Time=  1.06000E+01 Dt=  5.00000E-02 [y] snes_conv_reason:   11
  newton =   1 [     225] linear =   107 [     24280] cuts =  0 [   0]
  --> max chng: dpmx=   2.3283E-10 dtmpmx=   1.0258E-10

== TH FLOW =====================================================================
 Step    225 Time=  1.06500E+01 Dt=  5.00000E-02 [y] snes_conv_reason:   11
  newton =   1 [     226] linear =   101 [     24381] cuts =  0 [   0]
  --> max chng: dpmx=   2.3283E-10 dtmpmx=   9.5998E-11

== TH FLOW =====================================================================
 Step    226 Time=  1.07000E+01 Dt=  5.00000E-02 [y] snes_conv_reason:   11
  newton =   1 [     227] linear =    83 [     24464] cuts =  0 [   0]
  --> max chng: dpmx=   1.1642E-10 dtmpmx=   9.6531E-11

== TH FLOW =====================================================================
 Step    227 Time=  1.07500E+01 Dt=  5.00000E-02 [y] snes_conv_reason:   11
  newton =   1 [     228] linear =   107 [     24571] cuts =  0 [   0]
  --> max chng: dpmx=   2.3283E-10 dtmpmx=   9.4616E-11

== TH FLOW =====================================================================
 Step    228 Time=  1.08000E+01 Dt=  5.00000E-02 [y] snes_conv_reason:   11
  newton =   1 [     229] linear =    82 [     24653] cuts =  0 [   0]
  --> max chng: dpmx=   2.3283E-10 dtmpmx=   9.6556E-11

== TH FLOW =====================================================================
 Step    229 Time=  1.08500E+01 Dt=  5.00000E-02 [y] snes_conv_reason:   11
  newton =   1 [     230] linear =   107 [     24760] cuts =  0 [   0]
  --> max chng: dpmx=   1.1642E-10 dtmpmx=   8.8784E-11

== TH FLOW =====================================================================
 Step    230 Time=  1.09000E+01 Dt=  5.00000E-02 [y] snes_conv_reason:   11
  newton =   1 [     231] linear =    64 [     24824] cuts =  0 [   0]
  --> max chng: dpmx=   2.3283E-10 dtmpmx=   1.0836E-10

== TH FLOW =====================================================================
 Step    231 Time=  1.09500E+01 Dt=  5.00000E-02 [y] snes_conv_reason:   11
  newton =   1 [     232] linear =   106 [     24930] cuts =  0 [   0]
  --> max chng: dpmx=   2.3283E-10 dtmpmx=   9.5518E-11

== TH FLOW =====================================================================
 Step    232 Time=  1.10000E+01 Dt=  5.00000E-02 [y] snes_conv_reason:   11
  newton =   1 [     233] linear =   108 [     25038] cuts =  0 [   0]
  --> max chng: dpmx=   2.3283E-10 dtmpmx=   1.1127E-10

== TH FLOW =====================================================================
 Step    233 Time=  1.10500E+01 Dt=  5.00000E-02 [y] snes_conv_reason:   11
  newton =   1 [     234] linear =    62 [     25100] cuts =  0 [   0]
  --> max chng: dpmx=   2.3283E-10 dtmpmx=   1.0089E-10

== TH FLOW =====================================================================
 Step    234 Time=  1.11000E+01 Dt=  5.00000E-02 [y] snes_conv_reason:   11
  newton =   1 [     235] linear =    99 [     25199] cuts =  0 [   0]
  --> max chng: dpmx=   2.3283E-10 dtmpmx=   9.7168E-11

== TH FLOW =====================================================================
 Step    235 Time=  1.11500E+01 Dt=  5.00000E-02 [y] snes_conv_reason:   11
  newton =   1 [     236] linear =   102 [     25301] cuts =  0 [   0]
  --> max chng: dpmx=   2.3283E-10 dtmpmx=   1.0584E-10

== TH FLOW =====================================================================
 Step    236 Time=  1.12000E+01 Dt=  5.00000E-02 [y] snes_conv_reason:   11
  newton =   1 [     237] linear =    96 [     25397] cuts =  0 [   0]
  --> max chng: dpmx=   2.3283E-10 dtmpmx=   9.2816E-11

== TH FLOW =====================================================================
 Step    237 Time=  1.12500E+01 Dt=  5.00000E-02 [y] snes_conv_reason:   11
  newton =   1 [     238] linear =    56 [     25453] cuts =  0 [   0]
  --> max chng: dpmx=   1.1642E-10 dtmpmx=   1.1377E-10

== TH FLOW =====================================================================
 Step    238 Time=  1.13000E+01 Dt=  5.00000E-02 [y] snes_conv_reason:   11
  newton =   1 [     239] linear =   101 [     25554] cuts =  0 [   0]
  --> max chng: dpmx=   2.3283E-10 dtmpmx=   1.0417E-10

== TH FLOW =====================================================================
 Step    239 Time=  1.13500E+01 Dt=  5.00000E-02 [y] snes_conv_reason:   11
  newton =   1 [     240] linear =    94 [     25648] cuts =  0 [   0]
  --> max chng: dpmx=   2.3283E-10 dtmpmx=   1.0337E-10

== TH FLOW =====================================================================
 Step    240 Time=  1.14000E+01 Dt=  5.00000E-02 [y] snes_conv_reason:   11
  newton =   1 [     241] linear =    72 [     25720] cuts =  0 [   0]
  --> max chng: dpmx=   1.1642E-10 dtmpmx=   1.0066E-10

== TH FLOW =====================================================================
 Step    241 Time=  1.14500E+01 Dt=  5.00000E-02 [y] snes_conv_reason:   11
  newton =   1 [     242] linear =   110 [     25830] cuts =  0 [   0]
  --> max chng: dpmx=   1.1642E-10 dtmpmx=   9.5246E-11

== TH FLOW =====================================================================
 Step    242 Time=  1.15000E+01 Dt=  5.00000E-02 [y] snes_conv_reason:   11
  newton =   1 [     243] linear =   109 [     25939] cuts =  0 [   0]
  --> max chng: dpmx=   2.3283E-10 dtmpmx=   9.7179E-11

== TH FLOW =====================================================================
 Step    243 Time=  1.15500E+01 Dt=  5.00000E-02 [y] snes_conv_reason:   11
  newton =   1 [     244] linear =    91 [     26030] cuts =  0 [   0]
  --> max chng: dpmx=   1.1642E-10 dtmpmx=   1.0946E-10

== TH FLOW =====================================================================
 Step    244 Time=  1.16000E+01 Dt=  5.00000E-02 [y] snes_conv_reason:   11
  newton =   1 [     245] linear =    96 [     26126] cuts =  0 [   0]
  --> max chng: dpmx=   2.3283E-10 dtmpmx=   9.1967E-11

== TH FLOW =====================================================================
 Step    245 Time=  1.16500E+01 Dt=  5.00000E-02 [y] snes_conv_reason:   11
  newton =   1 [     246] linear =    89 [     26215] cuts =  0 [   0]
  --> max chng: dpmx=   2.3283E-10 dtmpmx=   1.0034E-10

== TH FLOW =====================================================================
 Step    246 Time=  1.17000E+01 Dt=  5.00000E-02 [y] snes_conv_reason:   11
  newton =   1 [     247] linear =   105 [     26320] cuts =  0 [   0]
  --> max chng: dpmx=   2.3283E-10 dtmpmx=   1.0285E-10

== TH FLOW =====================================================================
 Step    247 Time=  1.17500E+01 Dt=  5.00000E-02 [y] snes_conv_reason:   11
  newton =   1 [     248] linear =    88 [     26408] cuts =  0 [   0]
  --> max chng: dpmx=   1.1642E-10 dtmpmx=   9.3603E-11

== TH FLOW =====================================================================
 Step    248 Time=  1.18000E+01 Dt=  5.00000E-02 [y] snes_conv_reason:   11
  newton =   1 [     249] linear =   105 [     26513] cuts =  0 [   0]
  --> max chng: dpmx=   2.3283E-10 dtmpmx=   9.9268E-11

== TH FLOW =====================================================================
 Step    249 Time=  1.18500E+01 Dt=  5.00000E-02 [y] snes_conv_reason:   11
  newton =   1 [     250] linear =   112 [     26625] cuts =  0 [   0]
  --> max chng: dpmx=   2.3283E-10 dtmpmx=   1.0500E-10

== TH FLOW =====================================================================
 Step    250 Time=  1.19000E+01 Dt=  5.00000E-02 [y] snes_conv_reason:   11
  newton =   1 [     251] linear =   104 [     26729] cuts =  0 [   0]
  --> max chng: dpmx=   2.3283E-10 dtmpmx=   9.8604E-11

== TH FLOW =====================================================================
 Step    251 Time=  1.19500E+01 Dt=  5.00000E-02 [y] snes_conv_reason:   11
  newton =   1 [     252] linear =   116 [     26845] cuts =  0 [   0]
  --> max chng: dpmx=   2.3283E-10 dtmpmx=   9.2196E-11

== TH FLOW =====================================================================
 Step    252 Time=  1.20000E+01 Dt=  5.00000E-02 [y] snes_conv_reason:   11
  newton =   1 [     253] linear =    95 [     26940] cuts =  0 [   0]
  --> max chng: dpmx=   2.3283E-10 dtmpmx=   9.2843E-11

== TH FLOW =====================================================================
 Step    253 Time=  1.20500E+01 Dt=  5.00000E-02 [y] snes_conv_reason:   11
  newton =   1 [     254] linear =    93 [     27033] cuts =  0 [   0]
  --> max chng: dpmx=   2.3283E-10 dtmpmx=   9.4618E-11

== TH FLOW =====================================================================
 Step    254 Time=  1.21000E+01 Dt=  5.00000E-02 [y] snes_conv_reason:   11
  newton =   1 [     255] linear =   104 [     27137] cuts =  0 [   0]
  --> max chng: dpmx=   2.3283E-10 dtmpmx=   9.5017E-11

== TH FLOW =====================================================================
 Step    255 Time=  1.21500E+01 Dt=  5.00000E-02 [y] snes_conv_reason:   11
  newton =   1 [     256] linear =   114 [     27251] cuts =  0 [   0]
  --> max chng: dpmx=   2.3283E-10 dtmpmx=   9.6641E-11

== TH FLOW =====================================================================
 Step    256 Time=  1.22000E+01 Dt=  5.00000E-02 [y] snes_conv_reason:   11
  newton =   1 [     257] linear =    96 [     27347] cuts =  0 [   0]
  --> max chng: dpmx=   1.1642E-10 dtmpmx=   9.5500E-11

== TH FLOW =====================================================================
 Step    257 Time=  1.22500E+01 Dt=  5.00000E-02 [y] snes_conv_reason:   11
  newton =   1 [     258] linear =   113 [     27460] cuts =  0 [   0]
  --> max chng: dpmx=   2.3283E-10 dtmpmx=   1.0160E-10

[...]
 Step    493 Time=  2.40500E+01 Dt=  5.00000E-02 [y] snes_conv_reason:   11
  newton =   1 [     494] linear =    83 [     49989] cuts =  0 [   0]
  --> max chng: dpmx=   2.3283E-10 dtmpmx=   1.0577E-10

== TH FLOW =====================================================================
 Step    494 Time=  2.41000E+01 Dt=  5.00000E-02 [y] snes_conv_reason:   11
  newton =   1 [     495] linear =   115 [     50104] cuts =  0 [   0]
  --> max chng: dpmx=   2.3283E-10 dtmpmx=   9.6092E-11

== TH FLOW =====================================================================
 Step    495 Time=  2.41500E+01 Dt=  5.00000E-02 [y] snes_conv_reason:   11
  newton =   1 [     496] linear =   102 [     50206] cuts =  0 [   0]
  --> max chng: dpmx=   1.1642E-10 dtmpmx=   1.1190E-10

== TH FLOW =====================================================================
 Step    496 Time=  2.42000E+01 Dt=  5.00000E-02 [y] snes_conv_reason:   11
  newton =   1 [     497] linear =   114 [     50320] cuts =  0 [   0]
  --> max chng: dpmx=   2.3283E-10 dtmpmx=   9.7002E-11

== TH FLOW =====================================================================
 Step    497 Time=  2.42500E+01 Dt=  5.00000E-02 [y] snes_conv_reason:   11
  newton =   1 [     498] linear =   103 [     50423] cuts =  0 [   0]
  --> max chng: dpmx=   2.3283E-10 dtmpmx=   9.2866E-11

== TH FLOW =====================================================================
 Step    498 Time=  2.43000E+01 Dt=  5.00000E-02 [y] snes_conv_reason:   11
  newton =   1 [     499] linear =   106 [     50529] cuts =  0 [   0]
  --> max chng: dpmx=   1.1642E-10 dtmpmx=   9.0346E-11

== TH FLOW =====================================================================
 Step    499 Time=  2.43500E+01 Dt=  5.00000E-02 [y] snes_conv_reason:   11
  newton =   1 [     500] linear =    97 [     50626] cuts =  0 [   0]
  --> max chng: dpmx=   2.3283E-10 dtmpmx=   1.0680E-10

== TH FLOW =====================================================================
 Step    500 Time=  2.44000E+01 Dt=  5.00000E-02 [y] snes_conv_reason:   11
  newton =   1 [     501] linear =   114 [     50740] cuts =  0 [   0]
  --> max chng: dpmx=   2.3283E-10 dtmpmx=   1.0150E-10

== TH FLOW =====================================================================
 Step    501 Time=  2.44500E+01 Dt=  5.00000E-02 [y] snes_conv_reason:   11
  newton =   1 [     502] linear =    80 [     50820] cuts =  0 [   0]
  --> max chng: dpmx=   2.3283E-10 dtmpmx=   1.0458E-10

== TH FLOW =====================================================================
 Step    502 Time=  2.45000E+01 Dt=  5.00000E-02 [y] snes_conv_reason:   11
  newton =   1 [     503] linear =    93 [     50913] cuts =  0 [   0]
  --> max chng: dpmx=   2.3283E-10 dtmpmx=   9.6597E-11

== TH FLOW =====================================================================
 Step    503 Time=  2.45500E+01 Dt=  5.00000E-02 [y] snes_conv_reason:   11
  newton =   1 [     504] linear =   101 [     51014] cuts =  0 [   0]
  --> max chng: dpmx=   2.3283E-10 dtmpmx=   9.7719E-11

== TH FLOW =====================================================================
 Step    504 Time=  2.46000E+01 Dt=  5.00000E-02 [y] snes_conv_reason:   11
  newton =   1 [     505] linear =   110 [     51124] cuts =  0 [   0]
  --> max chng: dpmx=   1.1642E-10 dtmpmx=   1.0144E-10

== TH FLOW =====================================================================
 Step    505 Time=  2.46500E+01 Dt=  5.00000E-02 [y] snes_conv_reason:   11
  newton =   1 [     506] linear =   109 [     51233] cuts =  0 [   0]
  --> max chng: dpmx=   2.3283E-10 dtmpmx=   9.5833E-11

== TH FLOW =====================================================================
 Step    506 Time=  2.47000E+01 Dt=  5.00000E-02 [y] snes_conv_reason:   11
  newton =   1 [     507] linear =   105 [     51338] cuts =  0 [   0]
  --> max chng: dpmx=   1.1642E-10 dtmpmx=   9.6495E-11

== TH FLOW =====================================================================
 Step    507 Time=  2.47500E+01 Dt=  5.00000E-02 [y] snes_conv_reason:   11
  newton =   1 [     508] linear =    85 [     51423] cuts =  0 [   0]
  --> max chng: dpmx=   2.3283E-10 dtmpmx=   8.9589E-11

== TH FLOW =====================================================================
 Step    508 Time=  2.48000E+01 Dt=  5.00000E-02 [y] snes_conv_reason:   11
  newton =   1 [     509] linear =    76 [     51499] cuts =  0 [   0]
  --> max chng: dpmx=   1.1642E-10 dtmpmx=   9.3380E-11

== TH FLOW =====================================================================
 Step    509 Time=  2.48500E+01 Dt=  5.00000E-02 [y] snes_conv_reason:   11
  newton =   1 [     510] linear =    69 [     51568] cuts =  0 [   0]
  --> max chng: dpmx=   2.3283E-10 dtmpmx=   1.0925E-10

== TH FLOW =====================================================================
 Step    510 Time=  2.49000E+01 Dt=  5.00000E-02 [y] snes_conv_reason:   11
  newton =   1 [     511] linear =    89 [     51657] cuts =  0 [   0]
  --> max chng: dpmx=   2.3283E-10 dtmpmx=   9.3658E-11

== TH FLOW =====================================================================
 Step    511 Time=  2.49500E+01 Dt=  5.00000E-02 [y] snes_conv_reason:   11
  newton =   1 [     512] linear =    81 [     51738] cuts =  0 [   0]
  --> max chng: dpmx=   1.1642E-10 dtmpmx=   1.0659E-10

== TH FLOW =====================================================================
 Step    512 Time=  2.50000E+01 Dt=  5.00000E-02 [y] snes_conv_reason:   11
  newton =   1 [     513] linear =    98 [     51836] cuts =  0 [   0]
  --> max chng: dpmx=   1.1642E-10 dtmpmx=   8.9312E-11

== TH FLOW =====================================================================
 Step    513 Time=  2.50500E+01 Dt=  5.00000E-02 [y] snes_conv_reason:   11
  newton =   1 [     514] linear =   112 [     51948] cuts =  0 [   0]
  --> max chng: dpmx=   2.3283E-10 dtmpmx=   1.0253E-10

== TH FLOW =====================================================================
 Step    514 Time=  2.51000E+01 Dt=  5.00000E-02 [y] snes_conv_reason:   11
  newton =   1 [     515] linear =    95 [     52043] cuts =  0 [   0]
  --> max chng: dpmx=   2.3283E-10 dtmpmx=   9.2754E-11

== TH FLOW =====================================================================
 Step    515 Time=  2.51500E+01 Dt=  5.00000E-02 [y] snes_conv_reason:   11
  newton =   1 [     516] linear =    56 [     52099] cuts =  0 [   0]
  --> max chng: dpmx=   1.1642E-10 dtmpmx=   9.7028E-11

== TH FLOW =====================================================================
 Step    516 Time=  2.52000E+01 Dt=  5.00000E-02 [y] snes_conv_reason:   11
  newton =   1 [     517] linear =    90 [     52189] cuts =  0 [   0]
  --> max chng: dpmx=   2.3283E-10 dtmpmx=   8.8578E-11

== TH FLOW =====================================================================
 Step    517 Time=  2.52500E+01 Dt=  5.00000E-02 [y] snes_conv_reason:   11
  newton =   1 [     518] linear =    97 [     52286] cuts =  0 [   0]
  --> max chng: dpmx=   2.3283E-10 dtmpmx=   1.0011E-10

== TH FLOW =====================================================================
 Step    518 Time=  2.53000E+01 Dt=  5.00000E-02 [y] snes_conv_reason:   11
  newton =   1 [     519] linear =    81 [     52367] cuts =  0 [   0]
  --> max chng: dpmx=   2.3283E-10 dtmpmx=   1.0879E-10

== TH FLOW =====================================================================
 Step    519 Time=  2.53500E+01 Dt=  5.00000E-02 [y] snes_conv_reason:   11
  newton =   1 [     520] linear =    78 [     52445] cuts =  0 [   0]
  --> max chng: dpmx=   2.3283E-10 dtmpmx=   1.1013E-10

== TH FLOW =====================================================================
 Step    520 Time=  2.54000E+01 Dt=  5.00000E-02 [y] snes_conv_reason:   11
  newton =   1 [     521] linear =   130 [     52575] cuts =  0 [   0]
  --> max chng: dpmx=   2.3283E-10 dtmpmx=   8.9926E-11

== TH FLOW =====================================================================
 Step    521 Time=  2.54500E+01 Dt=  5.00000E-02 [y] snes_conv_reason:   11
  newton =   1 [     522] linear =    85 [     52660] cuts =  0 [   0]
  --> max chng: dpmx=   2.3283E-10 dtmpmx=   8.9202E-11

== TH FLOW =====================================================================
 Step    522 Time=  2.55000E+01 Dt=  5.00000E-02 [y] snes_conv_reason:   11
  newton =   1 [     523] linear =   103 [     52763] cuts =  0 [   0]
  --> max chng: dpmx=   1.1642E-10 dtmpmx=   1.0608E-10

== TH FLOW =====================================================================
 Step    523 Time=  2.55500E+01 Dt=  5.00000E-02 [y] snes_conv_reason:   11
  newton =   1 [     524] linear =   102 [     52865] cuts =  0 [   0]
  --> max chng: dpmx=   1.1642E-10 dtmpmx=   1.0029E-10

== TH FLOW =====================================================================
 Step    524 Time=  2.56000E+01 Dt=  5.00000E-02 [y] snes_conv_reason:   11
  newton =   1 [     525] linear =    89 [     52954] cuts =  0 [   0]
  --> max chng: dpmx=   1.1642E-10 dtmpmx=   1.0037E-10

== TH FLOW =====================================================================
 Step    525 Time=  2.56500E+01 Dt=  5.00000E-02 [y] snes_conv_reason:   11
  newton =   1 [     526] linear =    97 [     53051] cuts =  0 [   0]
  --> max chng: dpmx=   1.1642E-10 dtmpmx=   9.1251E-11

== TH FLOW =====================================================================
 Step    526 Time=  2.57000E+01 Dt=  5.00000E-02 [y] snes_conv_reason:   11
  newton =   1 [     527] linear =   113 [     53164] cuts =  0 [   0]
  --> max chng: dpmx=   2.3283E-10 dtmpmx=   8.8022E-11

== TH FLOW =====================================================================
 Step    527 Time=  2.57500E+01 Dt=  5.00000E-02 [y] snes_conv_reason:   11
  newton =   1 [     528] linear =    93 [     53257] cuts =  0 [   0]
  --> max chng: dpmx=   2.3283E-10 dtmpmx=   1.1660E-10

== TH FLOW =====================================================================
 Step    528 Time=  2.58000E+01 Dt=  5.00000E-02 [y] snes_conv_reason:   11
  newton =   1 [     529] linear =   112 [     53369] cuts =  0 [   0]
  --> max chng: dpmx=   2.3283E-10 dtmpmx=   8.8603E-11

== TH FLOW =====================================================================
 Step    529 Time=  2.58500E+01 Dt=  5.00000E-02 [y] snes_conv_reason:   11
  newton =   1 [     530] linear =    81 [     53450] cuts =  0 [   0]
  --> max chng: dpmx=   1.1642E-10 dtmpmx=   1.1090E-10

== TH FLOW =====================================================================
 Step    530 Time=  2.59000E+01 Dt=  5.00000E-02 [y] snes_conv_reason:   11
  newton =   1 [     531] linear =   105 [     53555] cuts =  0 [   0]
  --> max chng: dpmx=   2.3283E-10 dtmpmx=   9.4024E-11

== TH FLOW =====================================================================
 Step    531 Time=  2.59500E+01 Dt=  5.00000E-02 [y] snes_conv_reason:   11
  newton =   1 [     532] linear =   126 [     53681] cuts =  0 [   0]
  --> max chng: dpmx=   2.3283E-10 dtmpmx=   9.4703E-11

== TH FLOW =====================================================================
 Step    532 Time=  2.60000E+01 Dt=  5.00000E-02 [y] snes_conv_reason:   11
  newton =   1 [     533] linear =    79 [     53760] cuts =  0 [   0]
  --> max chng: dpmx=   2.3283E-10 dtmpmx=   9.7257E-11

== TH FLOW =====================================================================
 Step    533 Time=  2.60500E+01 Dt=  5.00000E-02 [y] snes_conv_reason:   11
  newton =   1 [     534] linear =    90 [     53850] cuts =  0 [   0]
  --> max chng: dpmx=   1.1642E-10 dtmpmx=   8.9496E-11

== TH FLOW =====================================================================
 Step    534 Time=  2.61000E+01 Dt=  5.00000E-02 [y] snes_conv_reason:   11
  newton =   1 [     535] linear =   103 [     53953] cuts =  0 [   0]
  --> max chng: dpmx=   1.1642E-10 dtmpmx=   1.0352E-10

== TH FLOW =====================================================================
 Step    535 Time=  2.61500E+01 Dt=  5.00000E-02 [y] snes_conv_reason:   11
  newton =   1 [     536] linear =   100 [     54053] cuts =  0 [   0]
  --> max chng: dpmx=   2.3283E-10 dtmpmx=   9.0854E-11

== TH FLOW =====================================================================
 Step    536 Time=  2.62000E+01 Dt=  5.00000E-02 [y] snes_conv_reason:   11
  newton =   1 [     537] linear =    91 [     54144] cuts =  0 [   0]
  --> max chng: dpmx=   2.3283E-10 dtmpmx=   8.8090E-11

== TH FLOW =====================================================================
 Step    537 Time=  2.62500E+01 Dt=  5.00000E-02 [y] snes_conv_reason:   11
  newton =   1 [     538] linear =    97 [     54241] cuts =  0 [   0]
  --> max chng: dpmx=   2.3283E-10 dtmpmx=   9.8987E-11

== TH FLOW =====================================================================
 Step    538 Time=  2.63000E+01 Dt=  5.00000E-02 [y] snes_conv_reason:   11
  newton =   1 [     539] linear =    94 [     54335] cuts =  0 [   0]
  --> max chng: dpmx=   1.1642E-10 dtmpmx=   9.7220E-11

== TH FLOW =====================================================================
 Step    539 Time=  2.63500E+01 Dt=  5.00000E-02 [y] snes_conv_reason:   11
  newton =   1 [     540] linear =    78 [     54413] cuts =  0 [   0]
  --> max chng: dpmx=   2.3283E-10 dtmpmx=   1.0026E-10

== TH FLOW =====================================================================
 Step    540 Time=  2.64000E+01 Dt=  5.00000E-02 [y] snes_conv_reason:   11
  newton =   1 [     541] linear =    61 [     54474] cuts =  0 [   0]
  --> max chng: dpmx=   1.1642E-10 dtmpmx=   9.3177E-11

== TH FLOW =====================================================================
 Step    541 Time=  2.64500E+01 Dt=  5.00000E-02 [y] snes_conv_reason:   11
  newton =   1 [     542] linear =    96 [     54570] cuts =  0 [   0]
  --> max chng: dpmx=   2.3283E-10 dtmpmx=   9.2649E-11

== TH FLOW =====================================================================
 Step    542 Time=  2.65000E+01 Dt=  5.00000E-02 [y] snes_conv_reason:   11
  newton =   1 [     543] linear =   110 [     54680] cuts =  0 [   0]
  --> max chng: dpmx=   2.3283E-10 dtmpmx=   9.8034E-11

== TH FLOW =====================================================================
 Step    543 Time=  2.65500E+01 Dt=  5.00000E-02 [y] snes_conv_reason:   11
  newton =   1 [     544] linear =   106 [     54786] cuts =  0 [   0]
  --> max chng: dpmx=   2.3283E-10 dtmpmx=   9.5495E-11

== TH FLOW =====================================================================
 Step    544 Time=  2.66000E+01 Dt=  5.00000E-02 [y] snes_conv_reason:   11
  newton =   1 [     545] linear =   104 [     54890] cuts =  0 [   0]
  --> max chng: dpmx=   2.3283E-10 dtmpmx=   1.1602E-10

== TH FLOW =====================================================================
 Step    545 Time=  2.66500E+01 Dt=  5.00000E-02 [y] snes_conv_reason:   11
  newton =   1 [     546] linear =   105 [     54995] cuts =  0 [   0]
  --> max chng: dpmx=   2.3283E-10 dtmpmx=   1.0313E-10

== TH FLOW =====================================================================
 Step    546 Time=  2.67000E+01 Dt=  5.00000E-02 [y] snes_conv_reason:   11
  newton =   1 [     547] linear =   113 [     55108] cuts =  0 [   0]
  --> max chng: dpmx=   2.3283E-10 dtmpmx=   1.0331E-10

== TH FLOW =====================================================================
 Step    547 Time=  2.67500E+01 Dt=  5.00000E-02 [y] snes_conv_reason:   11
  newton =   1 [     548] linear =   111 [     55219] cuts =  0 [   0]
  --> max chng: dpmx=   1.1642E-10 dtmpmx=   9.9202E-11

== TH FLOW =====================================================================
 Step    548 Time=  2.68000E+01 Dt=  5.00000E-02 [y] snes_conv_reason:   11
  newton =   1 [     549] linear =    94 [     55313] cuts =  0 [   0]
  --> max chng: dpmx=   2.3283E-10 dtmpmx=   9.8462E-11

== TH FLOW =====================================================================
 Step    549 Time=  2.68500E+01 Dt=  5.00000E-02 [y] snes_conv_reason:   11
  newton =   1 [     550] linear =   113 [     55426] cuts =  0 [   0]
  --> max chng: dpmx=   1.1642E-10 dtmpmx=   1.0280E-10

== TH FLOW =====================================================================
 Step    550 Time=  2.69000E+01 Dt=  5.00000E-02 [y] snes_conv_reason:   11
  newton =   1 [     551] linear =   104 [     55530] cuts =  0 [   0]
  --> max chng: dpmx=   2.3283E-10 dtmpmx=   1.0075E-10

== TH FLOW =====================================================================
 Step    551 Time=  2.69500E+01 Dt=  5.00000E-02 [y] snes_conv_reason:   11
  newton =   1 [     552] linear =   111 [     55641] cuts =  0 [   0]
  --> max chng: dpmx=   1.1642E-10 dtmpmx=   9.7115E-11

== TH FLOW =====================================================================
 Step    552 Time=  2.70000E+01 Dt=  5.00000E-02 [y] snes_conv_reason:   11
  newton =   1 [     553] linear =    79 [     55720] cuts =  0 [   0]
  --> max chng: dpmx=   2.3283E-10 dtmpmx=   1.0516E-10

== TH FLOW =====================================================================
 Step    553 Time=  2.70500E+01 Dt=  5.00000E-02 [y] snes_conv_reason:   11
  newton =   1 [     554] linear =    83 [     55803] cuts =  0 [   0]
  --> max chng: dpmx=   2.3283E-10 dtmpmx=   1.0134E-10

== TH FLOW =====================================================================
 Step    554 Time=  2.71000E+01 Dt=  5.00000E-02 [y] snes_conv_reason:   11
  newton =   1 [     555] linear =   101 [     55904] cuts =  0 [   0]
  --> max chng: dpmx=   2.3283E-10 dtmpmx=   1.0716E-10

== TH FLOW =====================================================================
 Step    555 Time=  2.71500E+01 Dt=  5.00000E-02 [y] snes_conv_reason:   11
  newton =   1 [     556] linear =    66 [     55970] cuts =  0 [   0]
  --> max chng: dpmx=   2.3283E-10 dtmpmx=   9.3795E-11

== TH FLOW =====================================================================
 Step    556 Time=  2.72000E+01 Dt=  5.00000E-02 [y] snes_conv_reason:   11
  newton =   1 [     557] linear =   103 [     56073] cuts =  0 [   0]
  --> max chng: dpmx=   2.3283E-10 dtmpmx=   1.0770E-10

== TH FLOW =====================================================================
 Step    557 Time=  2.72500E+01 Dt=  5.00000E-02 [y] snes_conv_reason:   11
  newton =   1 [     558] linear =    81 [     56154] cuts =  0 [   0]
  --> max chng: dpmx=   2.3283E-10 dtmpmx=   9.9847E-11

== TH FLOW =====================================================================
 Step    558 Time=  2.73000E+01 Dt=  5.00000E-02 [y] snes_conv_reason:   11
  newton =   1 [     559] linear =   102 [     56256] cuts =  0 [   0]
  --> max chng: dpmx=   2.3283E-10 dtmpmx=   1.1111E-10

== TH FLOW =====================================================================
 Step    559 Time=  2.73500E+01 Dt=  5.00000E-02 [y] snes_conv_reason:   11
  newton =   1 [     560] linear =    70 [     56326] cuts =  0 [   0]
  --> max chng: dpmx=   1.1642E-10 dtmpmx=   1.0740E-10

== TH FLOW =====================================================================
 Step    560 Time=  2.74000E+01 Dt=  5.00000E-02 [y] snes_conv_reason:   11
  newton =   1 [     561] linear =   112 [     56438] cuts =  0 [   0]
  --> max chng: dpmx=   2.3283E-10 dtmpmx=   1.0020E-10

== TH FLOW =====================================================================
 Step    561 Time=  2.74500E+01 Dt=  5.00000E-02 [y] snes_conv_reason:   11
  newton =   1 [     562] linear =   120 [     56558] cuts =  0 [   0]
  --> max chng: dpmx=   2.3283E-10 dtmpmx=   9.3261E-11

== TH FLOW =====================================================================
 Step    562 Time=  2.75000E+01 Dt=  5.00000E-02 [y] snes_conv_reason:   11
  newton =   1 [     563] linear =   111 [     56669] cuts =  0 [   0]
  --> max chng: dpmx=   2.3283E-10 dtmpmx=   9.9243E-11

 Wall Clock Time:  1.6137E+02 [sec]   2.6895E+00 [min]   4.4825E-02 [hr]
