
===================
  PFLOTRAN v3.0.1
===================

 Extent of Gridded Domain
  X: 2.5000000000000000 - 97.500000000000000
  Y: 2.5000000000000000 - 1277.5000000000000
  Z: 2.5000000000000000 - 2.5000000000000000


=+=+=+=+=+=+=+=+=+=+=+=+=+=+=+=+=+=+=+=+=+=+=+=+=+=+=+=+=+=+=+=+=+=+=+=+=+=+=+=+

  Initial Condition

--------------------------------------------------------------------------------
          Flow Condition:   initial
                  Region:   all
--------------------------------------------------------------------------------

  Flow Condition: initial
    Synchronize time with update: no
    Time units: yr
    Length units: m
      Datum:
        Dataset: Unnamed Ascii Dataset
          Type: dataset_ascii_type
          Transient: no
          Array Rank:  3

    Sub Condition: pressure
      Type: hydrostatic
      Gradient:
        Dataset: Unnamed Ascii Dataset
          Type: dataset_ascii_type
          Transient: no
          Array Rank:  3
      Data:
        Dataset: Unnamed Ascii Dataset
          Type: dataset_ascii_type
          Transient: no
          Array Rank:  1

    Sub Condition: temperature
      Type: dirichlet
      Gradient:
      Data:
        Dataset: Unnamed Ascii Dataset
          Type: dataset_ascii_type
          Transient: no
          Array Rank:  1

--------------------------------------------------------------------------------

=+=+=+=+=+=+=+=+=+=+=+=+=+=+=+=+=+=+=+=+=+=+=+=+=+=+=+=+=+=+=+=+=+=+=+=+=+=+=+=+

  Boundary Condition

--------------------------------------------------------------------------------
          Flow Condition:   initial
                  Region:   north
--------------------------------------------------------------------------------

  Flow Condition: initial
    Synchronize time with update: no
    Time units: yr
    Length units: m
      Datum:
        Dataset: Unnamed Ascii Dataset
          Type: dataset_ascii_type
          Transient: no
          Array Rank:  3

    Sub Condition: pressure
      Type: hydrostatic
      Gradient:
        Dataset: Unnamed Ascii Dataset
          Type: dataset_ascii_type
          Transient: no
          Array Rank:  3
      Data:
        Dataset: Unnamed Ascii Dataset
          Type: dataset_ascii_type
          Transient: no
          Array Rank:  1

    Sub Condition: temperature
      Type: dirichlet
      Gradient:
      Data:
        Dataset: Unnamed Ascii Dataset
          Type: dataset_ascii_type
          Transient: no
          Array Rank:  1

--------------------------------------------------------------------------------

=+=+=+=+=+=+=+=+=+=+=+=+=+=+=+=+=+=+=+=+=+=+=+=+=+=+=+=+=+=+=+=+=+=+=+=+=+=+=+=+

  Boundary Condition

--------------------------------------------------------------------------------
          Flow Condition:   initial
                  Region:   south
--------------------------------------------------------------------------------

  Flow Condition: initial
    Synchronize time with update: no
    Time units: yr
    Length units: m
      Datum:
        Dataset: Unnamed Ascii Dataset
          Type: dataset_ascii_type
          Transient: no
          Array Rank:  3

    Sub Condition: pressure
      Type: hydrostatic
      Gradient:
        Dataset: Unnamed Ascii Dataset
          Type: dataset_ascii_type
          Transient: no
          Array Rank:  3
      Data:
        Dataset: Unnamed Ascii Dataset
          Type: dataset_ascii_type
          Transient: no
          Array Rank:  1

    Sub Condition: temperature
      Type: dirichlet
      Gradient:
      Data:
        Dataset: Unnamed Ascii Dataset
          Type: dataset_ascii_type
          Transient: no
          Array Rank:  1

--------------------------------------------------------------------------------

=+=+=+=+=+=+=+=+=+=+=+=+=+=+=+=+=+=+=+=+=+=+=+=+=+=+=+=+=+=+=+=+=+=+=+=+=+=+=+=+

  Source Sink

--------------------------------------------------------------------------------
          Flow Condition:   injection
                  Region:   heatpump_inject0
--------------------------------------------------------------------------------

  Flow Condition: injection
    Synchronize time with update: no
    Time units: yr
    Length units: m
      Datum:

    Sub Condition: rate
      Type: scaled volumetric rate
      Gradient:
      Data:
        Dataset: Unnamed Ascii Dataset
          Type: dataset_ascii_type
          Is transient?: yes
          Number of times:      3
          Is cyclic?: no
          Buffer:
            Rank:  2
            Dims:    1   3
            Buffer Slice Size:   0
          Array Rank:  1

    Sub Condition: temperature
      Type: dirichlet
      Gradient:
      Data:
        Dataset: Unnamed Ascii Dataset
          Type: dataset_ascii_type
          Transient: no
          Array Rank:  1

--------------------------------------------------------------------------------

 Requested processors =    32

FLOW Time Stepper
                 acceleration: on
       acceleration threshold: 5
       number of ramp entries: 5
                ramp entry #1: 2.0000
                ramp entry #2: 2.0000
                ramp entry #3: 2.0000
                ramp entry #4: 2.0000
                ramp entry #5: 2.0000
                ramp entry #6: 1.8000
                ramp entry #7: 1.6000
                ramp entry #8: 1.4000
                ramp entry #9: 1.2000
               ramp entry #10: 1.0000
               ramp entry #11: 1.0000
               ramp entry #12: 1.0000
               ramp entry #13: 1.0000
      maximum number of steps: 999999
constant time steps threshold: 5
       maximum number of cuts: 16
             reduction factor: 5.000000E-01
        maximum growth factor: 2.000000E+00

FLOW Newton Solver
                         atol: 1.000000E-50
                         rtol: 1.000000E-03
                         stol: 1.000000E-08
                         dtol: 1.000000E+04
                      maxnorm: 1.000000E+20
                    inftolres: -9.990000E+02
                    inftolupd: 1.000000E+00
                 inftolrelupd: -9.990000E+02
                 inftolsclres: -9.990000E+02
                     max iter: 50
                     min iter: 1
                         maxf: 10000
                  matrix type: baij
         precond. matrix type: baij
               inexact newton: off
            print convergence: on
   print detailed convergence: off
          check infinity norm: on

FLOW Linear Solver
                       solver: bcgs
               preconditioner: bjacobi
                         atol: 1.000000E-50
                         rtol: 1.000000E-05
                         dtol: 1.000000E+04
            maximum iteration: 10000

== TH FLOW =====================================================================
 Step      1 Time=  1.00000E-05 Dt=  1.00000E-05 [y] snes_conv_reason:   11
  newton =   1 [       1] linear =   115 [       115] cuts =  0 [   0]
  --> max chng: dpmx=   1.3779E-01 dtmpmx=   2.1257E-07

== TH FLOW =====================================================================
 Step      2 Time=  3.00000E-05 Dt=  2.00000E-05 [y] snes_conv_reason:   11
  newton =   1 [       2] linear =   112 [       227] cuts =  0 [   0]
  --> max chng: dpmx=   2.3557E-03 dtmpmx=   4.2481E-07

== TH FLOW =====================================================================
 Step      3 Time=  7.00000E-05 Dt=  4.00000E-05 [y] snes_conv_reason:   11
  newton =   1 [       3] linear =   134 [       361] cuts =  0 [   0]
  --> max chng: dpmx=   1.7862E-05 dtmpmx=   8.4962E-07

== TH FLOW =====================================================================
 Step      4 Time=  1.50000E-04 Dt=  8.00000E-05 [y] snes_conv_reason:   11
  newton =   1 [       4] linear =   116 [       477] cuts =  0 [   0]
  --> max chng: dpmx=   7.8664E-06 dtmpmx=   1.6992E-06

== TH FLOW =====================================================================
 Step      5 Time=  3.10000E-04 Dt=  1.60000E-04 [y] snes_conv_reason:   11
  newton =   1 [       5] linear =   130 [       607] cuts =  0 [   0]
  --> max chng: dpmx=   1.7043E-05 dtmpmx=   3.3985E-06

== TH FLOW =====================================================================
 Step      6 Time=  6.30000E-04 Dt=  3.20000E-04 [y] snes_conv_reason:   11
  newton =   1 [       6] linear =   128 [       735] cuts =  0 [   0]
  --> max chng: dpmx=   3.9318E-05 dtmpmx=   6.7969E-06

== TH FLOW =====================================================================
 Step      7 Time=  1.27000E-03 Dt=  6.40000E-04 [y] snes_conv_reason:   11
  newton =   1 [       7] linear =   122 [       857] cuts =  0 [   0]
  --> max chng: dpmx=   9.9521E-05 dtmpmx=   1.3594E-05

== TH FLOW =====================================================================
 Step      8 Time=  2.55000E-03 Dt=  1.28000E-03 [y] snes_conv_reason:   11
  newton =   1 [       8] linear =   130 [       987] cuts =  0 [   0]
  --> max chng: dpmx=   2.8144E-04 dtmpmx=   2.7188E-05

== TH FLOW =====================================================================
 Step      9 Time=  5.11000E-03 Dt=  2.56000E-03 [y] snes_conv_reason:   11
  newton =   1 [       9] linear =   133 [      1120] cuts =  0 [   0]
  --> max chng: dpmx=   8.8449E-04 dtmpmx=   5.4376E-05

== TH FLOW =====================================================================
 Step     10 Time=  1.02300E-02 Dt=  5.12000E-03 [y] snes_conv_reason:   11
  newton =   1 [      10] linear =   137 [      1257] cuts =  0 [   0]
  --> max chng: dpmx=   2.9967E-03 dtmpmx=   1.0875E-04

== TH FLOW =====================================================================
 Step     11 Time=  2.04700E-02 Dt=  1.02400E-02 [y] snes_conv_reason:   11
  newton =   1 [      11] linear =   136 [      1393] cuts =  0 [   0]
  --> max chng: dpmx=   1.0494E-02 dtmpmx=   2.1750E-04

== TH FLOW =====================================================================
 Step     12 Time=  4.09500E-02 Dt=  2.04800E-02 [y] snes_conv_reason:   11
  newton =   1 [      12] linear =   137 [      1530] cuts =  0 [   0]
  --> max chng: dpmx=   3.6189E-02 dtmpmx=   4.3501E-04

== TH FLOW =====================================================================
 Step     13 Time=  8.19100E-02 Dt=  4.09600E-02 [y] snes_conv_reason:   11
  newton =   1 [      13] linear =   132 [      1662] cuts =  0 [   0]
  --> max chng: dpmx=   1.1502E-01 dtmpmx=   8.6994E-04

== TH FLOW =====================================================================
 Step     14 Time=  1.00000E-01 Dt=  1.80900E-02 [y] snes_conv_reason:   11
  newton =   1 [      14] linear =   128 [      1790] cuts =  0 [   0]
  --> max chng: dpmx=   5.8592E-02 dtmpmx=   3.8418E-04

== TH FLOW =====================================================================
 Step     15 Time=  1.50000E-01 Dt=  5.00000E-02 [y] snes_conv_reason:   11
  newton =   1 [      15] linear =   135 [      1925] cuts =  0 [   0]
  --> max chng: dpmx=   1.9146E-01 dtmpmx=   1.0584E-03

== TH FLOW =====================================================================
 Step     16 Time=  2.00000E-01 Dt=  5.00000E-02 [y] snes_conv_reason:   11
  newton =   1 [      16] linear =   130 [      2055] cuts =  0 [   0]
  --> max chng: dpmx=   1.9992E-01 dtmpmx=   1.0438E-03

== TH FLOW =====================================================================
 Step     17 Time=  2.50000E-01 Dt=  5.00000E-02 [y] snes_conv_reason:   11
  newton =   2 [      18] linear =   295 [      2350] cuts =  0 [   0]
  --> max chng: dpmx=   1.8549E+01 dtmpmx=   3.7678E-01

== TH FLOW =====================================================================
 Step     18 Time=  3.00000E-01 Dt=  5.00000E-02 [y] snes_conv_reason:   11
  newton =   1 [      19] linear =   139 [      2489] cuts =  0 [   0]
  --> max chng: dpmx=   8.0735E-01 dtmpmx=   1.3789E-01

== TH FLOW =====================================================================
 Step     19 Time=  3.50000E-01 Dt=  5.00000E-02 [y] snes_conv_reason:   11
  newton =   1 [      20] linear =   140 [      2629] cuts =  0 [   0]
  --> max chng: dpmx=   4.5430E-01 dtmpmx=   9.9325E-02

== TH FLOW =====================================================================
 Step     20 Time=  4.00000E-01 Dt=  5.00000E-02 [y] snes_conv_reason:   11
  newton =   1 [      21] linear =   149 [      2778] cuts =  0 [   0]
  --> max chng: dpmx=   5.4512E-01 dtmpmx=   8.0468E-02

== TH FLOW =====================================================================
 Step     21 Time=  4.50000E-01 Dt=  5.00000E-02 [y] snes_conv_reason:   11
  newton =   1 [      22] linear =   129 [      2907] cuts =  0 [   0]
  --> max chng: dpmx=   6.6160E-01 dtmpmx=   6.8689E-02

== TH FLOW =====================================================================
 Step     22 Time=  5.00000E-01 Dt=  5.00000E-02 [y] snes_conv_reason:   11
  newton =   1 [      23] linear =   132 [      3039] cuts =  0 [   0]
  --> max chng: dpmx=   7.2742E-01 dtmpmx=   6.0408E-02

== TH FLOW =====================================================================
 Step     23 Time=  5.50000E-01 Dt=  5.00000E-02 [y] snes_conv_reason:   11
  newton =   1 [      24] linear =   132 [      3171] cuts =  0 [   0]
  --> max chng: dpmx=   7.2194E-01 dtmpmx=   5.4160E-02

== TH FLOW =====================================================================
 Step     24 Time=  6.00000E-01 Dt=  5.00000E-02 [y] snes_conv_reason:   11
  newton =   1 [      25] linear =   130 [      3301] cuts =  0 [   0]
  --> max chng: dpmx=   6.4844E-01 dtmpmx=   4.9220E-02

== TH FLOW =====================================================================
 Step     25 Time=  6.50000E-01 Dt=  5.00000E-02 [y] snes_conv_reason:   11
  newton =   1 [      26] linear =   126 [      3427] cuts =  0 [   0]
  --> max chng: dpmx=   5.2975E-01 dtmpmx=   4.5183E-02

== TH FLOW =====================================================================
 Step     26 Time=  7.00000E-01 Dt=  5.00000E-02 [y] snes_conv_reason:   11
  newton =   1 [      27] linear =   126 [      3553] cuts =  0 [   0]
  --> max chng: dpmx=   3.9614E-01 dtmpmx=   3.9752E-02

== TH FLOW =====================================================================
 Step     27 Time=  7.50000E-01 Dt=  5.00000E-02 [y] snes_conv_reason:   11
  newton =   1 [      28] linear =   126 [      3679] cuts =  0 [   0]
  --> max chng: dpmx=   2.7282E-01 dtmpmx=   3.1601E-02

== TH FLOW =====================================================================
 Step     28 Time=  8.00000E-01 Dt=  5.00000E-02 [y] snes_conv_reason:   11
  newton =   1 [      29] linear =   139 [      3818] cuts =  0 [   0]
  --> max chng: dpmx=   1.7407E-01 dtmpmx=   2.2907E-02

== TH FLOW =====================================================================
 Step     29 Time=  8.50000E-01 Dt=  5.00000E-02 [y] snes_conv_reason:   11
  newton =   1 [      30] linear =   141 [      3959] cuts =  0 [   0]
  --> max chng: dpmx=   1.0351E-01 dtmpmx=   1.5273E-02

== TH FLOW =====================================================================
 Step     30 Time=  9.00000E-01 Dt=  5.00000E-02 [y] snes_conv_reason:   11
  newton =   1 [      31] linear =   149 [      4108] cuts =  0 [   0]
  --> max chng: dpmx=   5.7618E-02 dtmpmx=   9.4340E-03

== TH FLOW =====================================================================
 Step     31 Time=  9.50000E-01 Dt=  5.00000E-02 [y] snes_conv_reason:   11
  newton =   1 [      32] linear =   144 [      4252] cuts =  0 [   0]
  --> max chng: dpmx=   3.0152E-02 dtmpmx=   5.4312E-03

== TH FLOW =====================================================================
 Step     32 Time=  1.00000E+00 Dt=  5.00000E-02 [y] snes_conv_reason:   11
  newton =   1 [      33] linear =   142 [      4394] cuts =  0 [   0]
  --> max chng: dpmx=   1.4888E-02 dtmpmx=   2.9282E-03

== TH FLOW =====================================================================
 Step     33 Time=  1.05000E+00 Dt=  5.00000E-02 [y] snes_conv_reason:   11
  newton =   1 [      34] linear =   141 [      4535] cuts =  0 [   0]
  --> max chng: dpmx=   6.9524E-03 dtmpmx=   1.4854E-03

== TH FLOW =====================================================================
 Step     34 Time=  1.10000E+00 Dt=  5.00000E-02 [y] snes_conv_reason:   11
  newton =   1 [      35] linear =   141 [      4676] cuts =  0 [   0]
  --> max chng: dpmx=   3.0782E-03 dtmpmx=   7.1106E-04

== TH FLOW =====================================================================
 Step     35 Time=  1.15000E+00 Dt=  5.00000E-02 [y] snes_conv_reason:   11
  newton =   1 [      36] linear =   146 [      4822] cuts =  0 [   0]
  --> max chng: dpmx=   1.2941E-03 dtmpmx=   3.2201E-04

== TH FLOW =====================================================================
 Step     36 Time=  1.20000E+00 Dt=  5.00000E-02 [y] snes_conv_reason:   11
  newton =   1 [      37] linear =   147 [      4969] cuts =  0 [   0]
  --> max chng: dpmx=   5.1559E-04 dtmpmx=   1.3813E-04

== TH FLOW =====================================================================
 Step     37 Time=  1.25000E+00 Dt=  5.00000E-02 [y] snes_conv_reason:   11
  newton =   1 [      38] linear =   152 [      5121] cuts =  0 [   0]
  --> max chng: dpmx=   1.9416E-04 dtmpmx=   5.6092E-05

== TH FLOW =====================================================================
 Step     38 Time=  1.30000E+00 Dt=  5.00000E-02 [y] snes_conv_reason:   11
  newton =   1 [      39] linear =   147 [      5268] cuts =  0 [   0]
  --> max chng: dpmx=   6.8577E-05 dtmpmx=   2.1486E-05

== TH FLOW =====================================================================
 Step     39 Time=  1.35000E+00 Dt=  5.00000E-02 [y] snes_conv_reason:   11
  newton =   1 [      40] linear =   151 [      5419] cuts =  0 [   0]
  --> max chng: dpmx=   2.2247E-05 dtmpmx=   7.6877E-06

== TH FLOW =====================================================================
 Step     40 Time=  1.40000E+00 Dt=  5.00000E-02 [y] snes_conv_reason:   11
  newton =   1 [      41] linear =   149 [      5568] cuts =  0 [   0]
  --> max chng: dpmx=   6.3851E-06 dtmpmx=   2.5098E-06

== TH FLOW =====================================================================
 Step     41 Time=  1.45000E+00 Dt=  5.00000E-02 [y] snes_conv_reason:   11
  newton =   1 [      42] linear =   151 [      5719] cuts =  0 [   0]
  --> max chng: dpmx=   1.4805E-06 dtmpmx=   7.0236E-07

== TH FLOW =====================================================================
 Step     42 Time=  1.50000E+00 Dt=  5.00000E-02 [y] snes_conv_reason:   11
  newton =   1 [      43] linear =   153 [      5872] cuts =  0 [   0]
  --> max chng: dpmx=   5.2957E-07 dtmpmx=   1.3245E-07

== TH FLOW =====================================================================
 Step     43 Time=  1.55000E+00 Dt=  5.00000E-02 [y] snes_conv_reason:   11
  newton =   1 [      44] linear =   142 [      6014] cuts =  0 [   0]
  --> max chng: dpmx=   4.8312E-07 dtmpmx=   5.6151E-08

== TH FLOW =====================================================================
 Step     44 Time=  1.60000E+00 Dt=  5.00000E-02 [y] snes_conv_reason:   11
  newton =   1 [      45] linear =   134 [      6148] cuts =  0 [   0]
  --> max chng: dpmx=   3.1840E-07 dtmpmx=   4.1435E-08

== TH FLOW =====================================================================
 Step     45 Time=  1.65000E+00 Dt=  5.00000E-02 [y] snes_conv_reason:   11
  newton =   1 [      46] linear =   143 [      6291] cuts =  0 [   0]
  --> max chng: dpmx=   1.8242E-07 dtmpmx=   2.9779E-08

== TH FLOW =====================================================================
 Step     46 Time=  1.70000E+00 Dt=  5.00000E-02 [y] snes_conv_reason:   11
  newton =   1 [      47] linear =   143 [      6434] cuts =  0 [   0]
  --> max chng: dpmx=   9.6858E-08 dtmpmx=   1.8249E-08

== TH FLOW =====================================================================
 Step     47 Time=  1.75000E+00 Dt=  5.00000E-02 [y] snes_conv_reason:   11
  newton =   1 [      48] linear =   146 [      6580] cuts =  0 [   0]
  --> max chng: dpmx=   4.8545E-08 dtmpmx=   9.9810E-09

== TH FLOW =====================================================================
 Step     48 Time=  1.80000E+00 Dt=  5.00000E-02 [y] snes_conv_reason:   11
  newton =   1 [      49] linear =   147 [      6727] cuts =  0 [   0]
  --> max chng: dpmx=   2.3632E-08 dtmpmx=   5.0828E-09

== TH FLOW =====================================================================
 Step     49 Time=  1.85000E+00 Dt=  5.00000E-02 [y] snes_conv_reason:   11
  newton =   1 [      50] linear =   147 [      6874] cuts =  0 [   0]
  --> max chng: dpmx=   1.0710E-08 dtmpmx=   2.4913E-09

== TH FLOW =====================================================================
 Step     50 Time=  1.90000E+00 Dt=  5.00000E-02 [y] snes_conv_reason:   11
  newton =   1 [      51] linear =   146 [      7020] cuts =  0 [   0]
  --> max chng: dpmx=   5.1223E-09 dtmpmx=   1.1818E-09

== TH FLOW =====================================================================
 Step     51 Time=  1.95000E+00 Dt=  5.00000E-02 [y] snes_conv_reason:   11
  newton =   1 [      52] linear =   147 [      7167] cuts =  0 [   0]
  --> max chng: dpmx=   2.2119E-09 dtmpmx=   5.6147E-10

== TH FLOW =====================================================================
 Step     52 Time=  2.00000E+00 Dt=  5.00000E-02 [y] snes_conv_reason:   11
  newton =   1 [      53] linear =   146 [      7313] cuts =  0 [   0]
  --> max chng: dpmx=   1.1642E-09 dtmpmx=   2.5330E-10

== TH FLOW =====================================================================
 Step     53 Time=  2.05000E+00 Dt=  5.00000E-02 [y] snes_conv_reason:   11
  newton =   1 [      54] linear =   120 [      7433] cuts =  0 [   0]
  --> max chng: dpmx=   4.6566E-10 dtmpmx=   1.4450E-10

== TH FLOW =====================================================================
 Step     54 Time=  2.10000E+00 Dt=  5.00000E-02 [y] snes_conv_reason:   11
  newton =   1 [      55] linear =   130 [      7563] cuts =  0 [   0]
  --> max chng: dpmx=   4.6566E-10 dtmpmx=   1.0820E-10

== TH FLOW =====================================================================
 Step     55 Time=  2.15000E+00 Dt=  5.00000E-02 [y] snes_conv_reason:   11
  newton =   1 [      56] linear =   137 [      7700] cuts =  0 [   0]
  --> max chng: dpmx=   4.6566E-10 dtmpmx=   1.2576E-10

== TH FLOW =====================================================================
 Step     56 Time=  2.20000E+00 Dt=  5.00000E-02 [y] snes_conv_reason:   11
  newton =   1 [      57] linear =   135 [      7835] cuts =  0 [   0]
  --> max chng: dpmx=   5.8208E-10 dtmpmx=   1.0571E-10

== TH FLOW =====================================================================
 Step     57 Time=  2.25000E+00 Dt=  5.00000E-02 [y] snes_conv_reason:   11
  newton =   1 [      58] linear =   138 [      7973] cuts =  0 [   0]
  --> max chng: dpmx=   4.6566E-10 dtmpmx=   1.1917E-10

== TH FLOW =====================================================================
 Step     58 Time=  2.30000E+00 Dt=  5.00000E-02 [y] snes_conv_reason:   11
  newton =   1 [      59] linear =   117 [      8090] cuts =  0 [   0]
  --> max chng: dpmx=   3.4925E-10 dtmpmx=   1.1258E-10

== TH FLOW =====================================================================
 Step     59 Time=  2.35000E+00 Dt=  5.00000E-02 [y] snes_conv_reason:   11
  newton =   1 [      60] linear =   143 [      8233] cuts =  0 [   0]
  --> max chng: dpmx=   4.6566E-10 dtmpmx=   1.2470E-10

== TH FLOW =====================================================================
 Step     60 Time=  2.40000E+00 Dt=  5.00000E-02 [y] snes_conv_reason:   11
  newton =   1 [      61] linear =   135 [      8368] cuts =  0 [   0]
  --> max chng: dpmx=   4.6566E-10 dtmpmx=   1.0219E-10

== TH FLOW =====================================================================
 Step     61 Time=  2.45000E+00 Dt=  5.00000E-02 [y] snes_conv_reason:   11
  newton =   1 [      62] linear =   141 [      8509] cuts =  0 [   0]
  --> max chng: dpmx=   5.8208E-10 dtmpmx=   1.0351E-10

== TH FLOW =====================================================================
 Step     62 Time=  2.50000E+00 Dt=  5.00000E-02 [y] snes_conv_reason:   11
  newton =   1 [      63] linear =   125 [      8634] cuts =  0 [   0]
  --> max chng: dpmx=   4.6566E-10 dtmpmx=   1.0672E-10

== TH FLOW =====================================================================
 Step     63 Time=  2.55000E+00 Dt=  5.00000E-02 [y] snes_conv_reason:   11
  newton =   1 [      64] linear =   124 [      8758] cuts =  0 [   0]
  --> max chng: dpmx=   4.6566E-10 dtmpmx=   1.1552E-10

== TH FLOW =====================================================================
 Step     64 Time=  2.60000E+00 Dt=  5.00000E-02 [y] snes_conv_reason:   11
  newton =   1 [      65] linear =   132 [      8890] cuts =  0 [   0]
  --> max chng: dpmx=   4.6566E-10 dtmpmx=   1.2030E-10

== TH FLOW =====================================================================
 Step     65 Time=  2.65000E+00 Dt=  5.00000E-02 [y] snes_conv_reason:   11
  newton =   1 [      66] linear =   139 [      9029] cuts =  0 [   0]
  --> max chng: dpmx=   4.6566E-10 dtmpmx=   1.1662E-10

== TH FLOW =====================================================================
 Step     66 Time=  2.70000E+00 Dt=  5.00000E-02 [y] snes_conv_reason:   11
  newton =   1 [      67] linear =   141 [      9170] cuts =  0 [   0]
  --> max chng: dpmx=   4.6566E-10 dtmpmx=   1.0912E-10

== TH FLOW =====================================================================
 Step     67 Time=  2.75000E+00 Dt=  5.00000E-02 [y] snes_conv_reason:   11
  newton =   1 [      68] linear =   134 [      9304] cuts =  0 [   0]
  --> max chng: dpmx=   4.6566E-10 dtmpmx=   1.0662E-10

== TH FLOW =====================================================================
 Step     68 Time=  2.80000E+00 Dt=  5.00000E-02 [y] snes_conv_reason:   11
  newton =   1 [      69] linear =   151 [      9455] cuts =  0 [   0]
  --> max chng: dpmx=   5.8208E-10 dtmpmx=   9.5470E-11

== TH FLOW =====================================================================
 Step     69 Time=  2.85000E+00 Dt=  5.00000E-02 [y] snes_conv_reason:   11
  newton =   1 [      70] linear =   149 [      9604] cuts =  0 [   0]
  --> max chng: dpmx=   4.6566E-10 dtmpmx=   1.1045E-10

== TH FLOW =====================================================================
 Step     70 Time=  2.90000E+00 Dt=  5.00000E-02 [y] snes_conv_reason:   11
  newton =   1 [      71] linear =   159 [      9763] cuts =  0 [   0]
  --> max chng: dpmx=   4.6566E-10 dtmpmx=   1.0067E-10

== TH FLOW =====================================================================
 Step     71 Time=  2.95000E+00 Dt=  5.00000E-02 [y] snes_conv_reason:   11
  newton =   1 [      72] linear =   143 [      9906] cuts =  0 [   0]
  --> max chng: dpmx=   5.8208E-10 dtmpmx=   1.2794E-10

== TH FLOW =====================================================================
 Step     72 Time=  3.00000E+00 Dt=  5.00000E-02 [y] snes_conv_reason:   11
  newton =   1 [      73] linear =    94 [     10000] cuts =  0 [   0]
  --> max chng: dpmx=   4.6566E-10 dtmpmx=   1.0917E-10

== TH FLOW =====================================================================
 Step     73 Time=  3.05000E+00 Dt=  5.00000E-02 [y] snes_conv_reason:   11
  newton =   1 [      74] linear =   148 [     10148] cuts =  0 [   0]
  --> max chng: dpmx=   4.6566E-10 dtmpmx=   1.1043E-10

== TH FLOW =====================================================================
 Step     74 Time=  3.10000E+00 Dt=  5.00000E-02 [y] snes_conv_reason:   11
  newton =   1 [      75] linear =   129 [     10277] cuts =  0 [   0]
  --> max chng: dpmx=   3.4925E-10 dtmpmx=   1.0489E-10

== TH FLOW =====================================================================
 Step     75 Time=  3.15000E+00 Dt=  5.00000E-02 [y] snes_conv_reason:   11
  newton =   1 [      76] linear =   145 [     10422] cuts =  0 [   0]
  --> max chng: dpmx=   4.6566E-10 dtmpmx=   1.2153E-10

== TH FLOW =====================================================================
 Step     76 Time=  3.20000E+00 Dt=  5.00000E-02 [y] snes_conv_reason:   11
  newton =   1 [      77] linear =   144 [     10566] cuts =  0 [   0]
  --> max chng: dpmx=   3.4925E-10 dtmpmx=   1.2196E-10

== TH FLOW =====================================================================
 Step     77 Time=  3.25000E+00 Dt=  5.00000E-02 [y] snes_conv_reason:   11
  newton =   1 [      78] linear =   147 [     10713] cuts =  0 [   0]
  --> max chng: dpmx=   4.6566E-10 dtmpmx=   1.0784E-10

== TH FLOW =====================================================================
 Step     78 Time=  3.30000E+00 Dt=  5.00000E-02 [y] snes_conv_reason:   11
  newton =   1 [      79] linear =   136 [     10849] cuts =  0 [   0]
  --> max chng: dpmx=   4.6566E-10 dtmpmx=   1.0262E-10

== TH FLOW =====================================================================
 Step     79 Time=  3.35000E+00 Dt=  5.00000E-02 [y] snes_conv_reason:   11
  newton =   1 [      80] linear =   137 [     10986] cuts =  0 [   0]
  --> max chng: dpmx=   4.6566E-10 dtmpmx=   9.6369E-11

== TH FLOW =====================================================================
 Step     80 Time=  3.40000E+00 Dt=  5.00000E-02 [y] snes_conv_reason:   11
  newton =   1 [      81] linear =   106 [     11092] cuts =  0 [   0]
  --> max chng: dpmx=   3.4925E-10 dtmpmx=   1.0141E-10

== TH FLOW =====================================================================
 Step     81 Time=  3.45000E+00 Dt=  5.00000E-02 [y] snes_conv_reason:   11
  newton =   1 [      82] linear =   143 [     11235] cuts =  0 [   0]
  --> max chng: dpmx=   4.6566E-10 dtmpmx=   1.1549E-10

== TH FLOW =====================================================================
 Step     82 Time=  3.50000E+00 Dt=  5.00000E-02 [y] snes_conv_reason:   11
  newton =   1 [      83] linear =    96 [     11331] cuts =  0 [   0]
  --> max chng: dpmx=   4.6566E-10 dtmpmx=   1.2046E-10

== TH FLOW =====================================================================
 Step     83 Time=  3.55000E+00 Dt=  5.00000E-02 [y] snes_conv_reason:   11
  newton =   1 [      84] linear =   140 [     11471] cuts =  0 [   0]
  --> max chng: dpmx=   4.6566E-10 dtmpmx=   9.9691E-11

== TH FLOW =====================================================================
 Step     84 Time=  3.60000E+00 Dt=  5.00000E-02 [y] snes_conv_reason:   11
  newton =   1 [      85] linear =   138 [     11609] cuts =  0 [   0]
  --> max chng: dpmx=   3.4925E-10 dtmpmx=   1.0419E-10

== TH FLOW =====================================================================
 Step     85 Time=  3.65000E+00 Dt=  5.00000E-02 [y] snes_conv_reason:   11
  newton =   1 [      86] linear =   126 [     11735] cuts =  0 [   0]
  --> max chng: dpmx=   3.4925E-10 dtmpmx=   1.1105E-10

== TH FLOW =====================================================================
 Step     86 Time=  3.70000E+00 Dt=  5.00000E-02 [y] snes_conv_reason:   11
  newton =   1 [      87] linear =   128 [     11863] cuts =  0 [   0]
  --> max chng: dpmx=   3.4925E-10 dtmpmx=   1.1629E-10

== TH FLOW =====================================================================
 Step     87 Time=  3.75000E+00 Dt=  5.00000E-02 [y] snes_conv_reason:   11
  newton =   1 [      88] linear =   131 [     11994] cuts =  0 [   0]
  --> max chng: dpmx=   3.4925E-10 dtmpmx=   9.7389E-11

== TH FLOW =====================================================================
 Step     88 Time=  3.80000E+00 Dt=  5.00000E-02 [y] snes_conv_reason:   11
  newton =   1 [      89] linear =   145 [     12139] cuts =  0 [   0]
  --> max chng: dpmx=   3.4925E-10 dtmpmx=   1.0471E-10

== TH FLOW =====================================================================
 Step     89 Time=  3.85000E+00 Dt=  5.00000E-02 [y] snes_conv_reason:   11
  newton =   1 [      90] linear =   122 [     12261] cuts =  0 [   0]
  --> max chng: dpmx=   4.6566E-10 dtmpmx=   1.0477E-10

== TH FLOW =====================================================================
 Step     90 Time=  3.90000E+00 Dt=  5.00000E-02 [y] snes_conv_reason:   11
  newton =   1 [      91] linear =   121 [     12382] cuts =  0 [   0]
  --> max chng: dpmx=   4.6566E-10 dtmpmx=   1.0927E-10

== TH FLOW =====================================================================
 Step     91 Time=  3.95000E+00 Dt=  5.00000E-02 [y] snes_conv_reason:   11
  newton =   1 [      92] linear =    98 [     12480] cuts =  0 [   0]
  --> max chng: dpmx=   4.6566E-10 dtmpmx=   9.2857E-11

== TH FLOW =====================================================================
 Step     92 Time=  4.00000E+00 Dt=  5.00000E-02 [y] snes_conv_reason:   11
  newton =   1 [      93] linear =   129 [     12609] cuts =  0 [   0]
  --> max chng: dpmx=   4.6566E-10 dtmpmx=   1.1869E-10

== TH FLOW =====================================================================
 Step     93 Time=  4.05000E+00 Dt=  5.00000E-02 [y] snes_conv_reason:   11
  newton =   1 [      94] linear =   119 [     12728] cuts =  0 [   0]
  --> max chng: dpmx=   4.6566E-10 dtmpmx=   1.1541E-10

== TH FLOW =====================================================================
 Step     94 Time=  4.10000E+00 Dt=  5.00000E-02 [y] snes_conv_reason:   11
  newton =   1 [      95] linear =   144 [     12872] cuts =  0 [   0]
  --> max chng: dpmx=   4.6566E-10 dtmpmx=   1.0393E-10

== TH FLOW =====================================================================
 Step     95 Time=  4.15000E+00 Dt=  5.00000E-02 [y] snes_conv_reason:   11
  newton =   1 [      96] linear =   138 [     13010] cuts =  0 [   0]
  --> max chng: dpmx=   3.4925E-10 dtmpmx=   1.1786E-10

== TH FLOW =====================================================================
 Step     96 Time=  4.20000E+00 Dt=  5.00000E-02 [y] snes_conv_reason:   11
  newton =   1 [      97] linear =   127 [     13137] cuts =  0 [   0]
  --> max chng: dpmx=   3.4925E-10 dtmpmx=   9.6925E-11

== TH FLOW =====================================================================
 Step     97 Time=  4.25000E+00 Dt=  5.00000E-02 [y] snes_conv_reason:   11
  newton =   1 [      98] linear =   130 [     13267] cuts =  0 [   0]
  --> max chng: dpmx=   3.4925E-10 dtmpmx=   9.7735E-11

== TH FLOW =====================================================================
 Step     98 Time=  4.30000E+00 Dt=  5.00000E-02 [y] snes_conv_reason:   11
  newton =   1 [      99] linear =   150 [     13417] cuts =  0 [   0]
  --> max chng: dpmx=   4.6566E-10 dtmpmx=   9.7383E-11

== TH FLOW =====================================================================
 Step     99 Time=  4.35000E+00 Dt=  5.00000E-02 [y] snes_conv_reason:   11
  newton =   1 [     100] linear =   138 [     13555] cuts =  0 [   0]
  --> max chng: dpmx=   5.8208E-10 dtmpmx=   1.0320E-10

== TH FLOW =====================================================================
 Step    100 Time=  4.40000E+00 Dt=  5.00000E-02 [y] snes_conv_reason:   11
  newton =   1 [     101] linear =   129 [     13684] cuts =  0 [   0]
  --> max chng: dpmx=   3.4925E-10 dtmpmx=   1.0037E-10

== TH FLOW =====================================================================
 Step    101 Time=  4.45000E+00 Dt=  5.00000E-02 [y] snes_conv_reason:   11
  newton =   1 [     102] linear =   146 [     13830] cuts =  0 [   0]
  --> max chng: dpmx=   4.6566E-10 dtmpmx=   1.0380E-10

== TH FLOW =====================================================================
 Step    102 Time=  4.50000E+00 Dt=  5.00000E-02 [y] snes_conv_reason:   11
  newton =   1 [     103] linear =   170 [     14000] cuts =  0 [   0]
  --> max chng: dpmx=   4.6566E-10 dtmpmx=   1.1329E-10

== TH FLOW =====================================================================
 Step    103 Time=  4.55000E+00 Dt=  5.00000E-02 [y] snes_conv_reason:   11
  newton =   1 [     104] linear =   143 [     14143] cuts =  0 [   0]
  --> max chng: dpmx=   4.6566E-10 dtmpmx=   1.1037E-10

== TH FLOW =====================================================================
 Step    104 Time=  4.60000E+00 Dt=  5.00000E-02 [y] snes_conv_reason:   11
  newton =   1 [     105] linear =   145 [     14288] cuts =  0 [   0]
  --> max chng: dpmx=   3.4925E-10 dtmpmx=   1.0895E-10

== TH FLOW =====================================================================
 Step    105 Time=  4.65000E+00 Dt=  5.00000E-02 [y] snes_conv_reason:   11
  newton =   1 [     106] linear =   112 [     14400] cuts =  0 [   0]
  --> max chng: dpmx=   4.6566E-10 dtmpmx=   1.0562E-10

== TH FLOW =====================================================================
 Step    106 Time=  4.70000E+00 Dt=  5.00000E-02 [y] snes_conv_reason:   11
  newton =   1 [     107] linear =   148 [     14548] cuts =  0 [   0]
  --> max chng: dpmx=   3.4925E-10 dtmpmx=   1.0471E-10

== TH FLOW =====================================================================
 Step    107 Time=  4.75000E+00 Dt=  5.00000E-02 [y] snes_conv_reason:   11
  newton =   1 [     108] linear =   142 [     14690] cuts =  0 [   0]
  --> max chng: dpmx=   4.6566E-10 dtmpmx=   1.0994E-10

== TH FLOW =====================================================================
 Step    108 Time=  4.80000E+00 Dt=  5.00000E-02 [y] snes_conv_reason:   11
  newton =   1 [     109] linear =   139 [     14829] cuts =  0 [   0]
  --> max chng: dpmx=   4.6566E-10 dtmpmx=   1.0309E-10

== TH FLOW =====================================================================
 Step    109 Time=  4.85000E+00 Dt=  5.00000E-02 [y] snes_conv_reason:   11
  newton =   1 [     110] linear =   129 [     14958] cuts =  0 [   0]
  --> max chng: dpmx=   3.4925E-10 dtmpmx=   1.0019E-10

== TH FLOW =====================================================================
 Step    110 Time=  4.90000E+00 Dt=  5.00000E-02 [y] snes_conv_reason:   11
  newton =   1 [     111] linear =   122 [     15080] cuts =  0 [   0]
  --> max chng: dpmx=   3.4925E-10 dtmpmx=   1.0697E-10

== TH FLOW =====================================================================
 Step    111 Time=  4.95000E+00 Dt=  5.00000E-02 [y] snes_conv_reason:   11
  newton =   1 [     112] linear =   134 [     15214] cuts =  0 [   0]
  --> max chng: dpmx=   4.6566E-10 dtmpmx=   1.2587E-10

== TH FLOW =====================================================================
 Step    112 Time=  5.00000E+00 Dt=  5.00000E-02 [y] snes_conv_reason:   11
  newton =   1 [     113] linear =   152 [     15366] cuts =  0 [   0]
  --> max chng: dpmx=   3.4925E-10 dtmpmx=   1.3168E-10

== TH FLOW =====================================================================
 Step    113 Time=  5.05000E+00 Dt=  5.00000E-02 [y] snes_conv_reason:   11
  newton =   1 [     114] linear =   138 [     15504] cuts =  0 [   0]
  --> max chng: dpmx=   4.6566E-10 dtmpmx=   1.0047E-10

== TH FLOW =====================================================================
 Step    114 Time=  5.10000E+00 Dt=  5.00000E-02 [y] snes_conv_reason:   11
  newton =   1 [     115] linear =   143 [     15647] cuts =  0 [   0]
  --> max chng: dpmx=   4.6566E-10 dtmpmx=   1.1592E-10

== TH FLOW =====================================================================
 Step    115 Time=  5.15000E+00 Dt=  5.00000E-02 [y] snes_conv_reason:   11
  newton =   1 [     116] linear =   117 [     15764] cuts =  0 [   0]
  --> max chng: dpmx=   4.6566E-10 dtmpmx=   1.0809E-10

== TH FLOW =====================================================================
 Step    116 Time=  5.20000E+00 Dt=  5.00000E-02 [y] snes_conv_reason:   11
  newton =   1 [     117] linear =   115 [     15879] cuts =  0 [   0]
  --> max chng: dpmx=   4.6566E-10 dtmpmx=   1.2138E-10

== TH FLOW =====================================================================
 Step    117 Time=  5.25000E+00 Dt=  5.00000E-02 [y] snes_conv_reason:   11
  newton =   1 [     118] linear =   114 [     15993] cuts =  0 [   0]
  --> max chng: dpmx=   3.4925E-10 dtmpmx=   1.0685E-10

== TH FLOW =====================================================================
 Step    118 Time=  5.30000E+00 Dt=  5.00000E-02 [y] snes_conv_reason:   11
  newton =   1 [     119] linear =   154 [     16147] cuts =  0 [   0]
  --> max chng: dpmx=   4.6566E-10 dtmpmx=   1.0181E-10

== TH FLOW =====================================================================
 Step    119 Time=  5.35000E+00 Dt=  5.00000E-02 [y] snes_conv_reason:   11
  newton =   1 [     120] linear =   117 [     16264] cuts =  0 [   0]
  --> max chng: dpmx=   4.6566E-10 dtmpmx=   1.0725E-10

== TH FLOW =====================================================================
 Step    120 Time=  5.40000E+00 Dt=  5.00000E-02 [y] snes_conv_reason:   11
  newton =   1 [     121] linear =   146 [     16410] cuts =  0 [   0]
  --> max chng: dpmx=   4.6566E-10 dtmpmx=   9.8378E-11

== TH FLOW =====================================================================
 Step    121 Time=  5.45000E+00 Dt=  5.00000E-02 [y] snes_conv_reason:   11
  newton =   1 [     122] linear =   141 [     16551] cuts =  0 [   0]
  --> max chng: dpmx=   6.9849E-10 dtmpmx=   1.0537E-10

== TH FLOW =====================================================================
 Step    122 Time=  5.50000E+00 Dt=  5.00000E-02 [y] snes_conv_reason:   11
  newton =   1 [     123] linear =   119 [     16670] cuts =  0 [   0]
  --> max chng: dpmx=   3.4925E-10 dtmpmx=   1.0898E-10

== TH FLOW =====================================================================
 Step    123 Time=  5.55000E+00 Dt=  5.00000E-02 [y] snes_conv_reason:   11
  newton =   1 [     124] linear =   148 [     16818] cuts =  0 [   0]
  --> max chng: dpmx=   4.6566E-10 dtmpmx=   1.0466E-10

== TH FLOW =====================================================================
 Step    124 Time=  5.60000E+00 Dt=  5.00000E-02 [y] snes_conv_reason:   11
  newton =   1 [     125] linear =   138 [     16956] cuts =  0 [   0]
  --> max chng: dpmx=   4.6566E-10 dtmpmx=   9.5760E-11

== TH FLOW =====================================================================
 Step    125 Time=  5.65000E+00 Dt=  5.00000E-02 [y] snes_conv_reason:   11
  newton =   1 [     126] linear =   137 [     17093] cuts =  0 [   0]
  --> max chng: dpmx=   3.4925E-10 dtmpmx=   1.0314E-10

== TH FLOW =====================================================================
 Step    126 Time=  5.70000E+00 Dt=  5.00000E-02 [y] snes_conv_reason:   11
  newton =   1 [     127] linear =   133 [     17226] cuts =  0 [   0]
  --> max chng: dpmx=   4.6566E-10 dtmpmx=   9.9851E-11

== TH FLOW =====================================================================
 Step    127 Time=  5.75000E+00 Dt=  5.00000E-02 [y] snes_conv_reason:   11
  newton =   1 [     128] linear =   140 [     17366] cuts =  0 [   0]
  --> max chng: dpmx=   4.6566E-10 dtmpmx=   1.0020E-10

== TH FLOW =====================================================================
 Step    128 Time=  5.80000E+00 Dt=  5.00000E-02 [y] snes_conv_reason:   11
  newton =   1 [     129] linear =   121 [     17487] cuts =  0 [   0]
  --> max chng: dpmx=   4.6566E-10 dtmpmx=   1.0118E-10

== TH FLOW =====================================================================
 Step    129 Time=  5.85000E+00 Dt=  5.00000E-02 [y] snes_conv_reason:   11
  newton =   1 [     130] linear =   123 [     17610] cuts =  0 [   0]
  --> max chng: dpmx=   3.4925E-10 dtmpmx=   9.6762E-11

== TH FLOW =====================================================================
 Step    130 Time=  5.90000E+00 Dt=  5.00000E-02 [y] snes_conv_reason:   11
  newton =   1 [     131] linear =   146 [     17756] cuts =  0 [   0]
  --> max chng: dpmx=   5.8208E-10 dtmpmx=   1.1057E-10

== TH FLOW =====================================================================
 Step    131 Time=  5.95000E+00 Dt=  5.00000E-02 [y] snes_conv_reason:   11
  newton =   1 [     132] linear =   132 [     17888] cuts =  0 [   0]
  --> max chng: dpmx=   5.8208E-10 dtmpmx=   1.0760E-10

== TH FLOW =====================================================================
 Step    132 Time=  6.00000E+00 Dt=  5.00000E-02 [y] snes_conv_reason:   11
  newton =   1 [     133] linear =   118 [     18006] cuts =  0 [   0]
  --> max chng: dpmx=   3.4925E-10 dtmpmx=   1.0626E-10

== TH FLOW =====================================================================
 Step    133 Time=  6.05000E+00 Dt=  5.00000E-02 [y] snes_conv_reason:   11
  newton =   1 [     134] linear =   148 [     18154] cuts =  0 [   0]
  --> max chng: dpmx=   4.6566E-10 dtmpmx=   1.0969E-10

== TH FLOW =====================================================================
 Step    134 Time=  6.10000E+00 Dt=  5.00000E-02 [y] snes_conv_reason:   11
  newton =   1 [     135] linear =   111 [     18265] cuts =  0 [   0]
  --> max chng: dpmx=   3.4925E-10 dtmpmx=   9.8613E-11

== TH FLOW =====================================================================
 Step    135 Time=  6.15000E+00 Dt=  5.00000E-02 [y] snes_conv_reason:   11
  newton =   1 [     136] linear =   139 [     18404] cuts =  0 [   0]
  --> max chng: dpmx=   5.8208E-10 dtmpmx=   9.9861E-11

== TH FLOW =====================================================================
 Step    136 Time=  6.20000E+00 Dt=  5.00000E-02 [y] snes_conv_reason:   11
  newton =   1 [     137] linear =   126 [     18530] cuts =  0 [   0]
  --> max chng: dpmx=   3.4925E-10 dtmpmx=   1.1119E-10

== TH FLOW =====================================================================
 Step    137 Time=  6.25000E+00 Dt=  5.00000E-02 [y] snes_conv_reason:   11
  newton =   1 [     138] linear =   133 [     18663] cuts =  0 [   0]
  --> max chng: dpmx=   4.6566E-10 dtmpmx=   1.0262E-10

== TH FLOW =====================================================================
 Step    138 Time=  6.30000E+00 Dt=  5.00000E-02 [y] snes_conv_reason:   11
  newton =   1 [     139] linear =   132 [     18795] cuts =  0 [   0]
  --> max chng: dpmx=   4.6566E-10 dtmpmx=   1.1351E-10

== TH FLOW =====================================================================
 Step    139 Time=  6.35000E+00 Dt=  5.00000E-02 [y] snes_conv_reason:   11
  newton =   1 [     140] linear =   146 [     18941] cuts =  0 [   0]
  --> max chng: dpmx=   6.9849E-10 dtmpmx=   1.0657E-10

== TH FLOW =====================================================================
 Step    140 Time=  6.40000E+00 Dt=  5.00000E-02 [y] snes_conv_reason:   11
  newton =   1 [     141] linear =   113 [     19054] cuts =  0 [   0]
  --> max chng: dpmx=   4.6566E-10 dtmpmx=   1.0641E-10

== TH FLOW =====================================================================
 Step    141 Time=  6.45000E+00 Dt=  5.00000E-02 [y] snes_conv_reason:   11
  newton =   1 [     142] linear =   137 [     19191] cuts =  0 [   0]
  --> max chng: dpmx=   4.6566E-10 dtmpmx=   1.0103E-10

== TH FLOW =====================================================================
 Step    142 Time=  6.50000E+00 Dt=  5.00000E-02 [y] snes_conv_reason:   11
  newton =   1 [     143] linear =   134 [     19325] cuts =  0 [   0]
  --> max chng: dpmx=   3.4925E-10 dtmpmx=   1.0855E-10

== TH FLOW =====================================================================
 Step    143 Time=  6.55000E+00 Dt=  5.00000E-02 [y] snes_conv_reason:   11
  newton =   1 [     144] linear =   153 [     19478] cuts =  0 [   0]
  --> max chng: dpmx=   4.6566E-10 dtmpmx=   1.0909E-10

== TH FLOW =====================================================================
 Step    144 Time=  6.60000E+00 Dt=  5.00000E-02 [y] snes_conv_reason:   11
  newton =   1 [     145] linear =   144 [     19622] cuts =  0 [   0]
  --> max chng: dpmx=   5.8208E-10 dtmpmx=   1.0537E-10

== TH FLOW =====================================================================
 Step    145 Time=  6.65000E+00 Dt=  5.00000E-02 [y] snes_conv_reason:   11
  newton =   1 [     146] linear =   143 [     19765] cuts =  0 [   0]
  --> max chng: dpmx=   4.6566E-10 dtmpmx=   9.8190E-11

== TH FLOW =====================================================================
 Step    146 Time=  6.70000E+00 Dt=  5.00000E-02 [y] snes_conv_reason:   11
  newton =   1 [     147] linear =   126 [     19891] cuts =  0 [   0]
  --> max chng: dpmx=   4.6566E-10 dtmpmx=   1.1141E-10

== TH FLOW =====================================================================
 Step    147 Time=  6.75000E+00 Dt=  5.00000E-02 [y] snes_conv_reason:   11
  newton =   1 [     148] linear =   131 [     20022] cuts =  0 [   0]
  --> max chng: dpmx=   4.6566E-10 dtmpmx=   1.2042E-10

== TH FLOW =====================================================================
 Step    148 Time=  6.80000E+00 Dt=  5.00000E-02 [y] snes_conv_reason:   11
  newton =   1 [     149] linear =   135 [     20157] cuts =  0 [   0]
  --> max chng: dpmx=   3.4925E-10 dtmpmx=   1.1524E-10

== TH FLOW =====================================================================
 Step    149 Time=  6.85000E+00 Dt=  5.00000E-02 [y] snes_conv_reason:   11
  newton =   1 [     150] linear =   124 [     20281] cuts =  0 [   0]
  --> max chng: dpmx=   4.6566E-10 dtmpmx=   1.1350E-10

== TH FLOW =====================================================================
 Step    150 Time=  6.90000E+00 Dt=  5.00000E-02 [y] snes_conv_reason:   11
  newton =   1 [     151] linear =   104 [     20385] cuts =  0 [   0]
  --> max chng: dpmx=   4.6566E-10 dtmpmx=   9.3014E-11

== TH FLOW =====================================================================
 Step    151 Time=  6.95000E+00 Dt=  5.00000E-02 [y] snes_conv_reason:   11
  newton =   1 [     152] linear =   131 [     20516] cuts =  0 [   0]
  --> max chng: dpmx=   3.4925E-10 dtmpmx=   1.1570E-10

== TH FLOW =====================================================================
 Step    152 Time=  7.00000E+00 Dt=  5.00000E-02 [y] snes_conv_reason:   11
  newton =   1 [     153] linear =   106 [     20622] cuts =  0 [   0]
  --> max chng: dpmx=   4.6566E-10 dtmpmx=   1.0670E-10

== TH FLOW =====================================================================
 Step    153 Time=  7.05000E+00 Dt=  5.00000E-02 [y] snes_conv_reason:   11
  newton =   1 [     154] linear =   161 [     20783] cuts =  0 [   0]
  --> max chng: dpmx=   4.6566E-10 dtmpmx=   1.0709E-10

== TH FLOW =====================================================================
 Step    154 Time=  7.10000E+00 Dt=  5.00000E-02 [y] snes_conv_reason:   11
  newton =   1 [     155] linear =   125 [     20908] cuts =  0 [   0]
  --> max chng: dpmx=   3.4925E-10 dtmpmx=   1.0193E-10

== TH FLOW =====================================================================
 Step    155 Time=  7.15000E+00 Dt=  5.00000E-02 [y] snes_conv_reason:   11
  newton =   1 [     156] linear =   146 [     21054] cuts =  0 [   0]
  --> max chng: dpmx=   3.4925E-10 dtmpmx=   1.0911E-10

== TH FLOW =====================================================================
 Step    156 Time=  7.20000E+00 Dt=  5.00000E-02 [y] snes_conv_reason:   11
  newton =   1 [     157] linear =   153 [     21207] cuts =  0 [   0]
  --> max chng: dpmx=   3.4925E-10 dtmpmx=   1.0751E-10

== TH FLOW =====================================================================
 Step    157 Time=  7.25000E+00 Dt=  5.00000E-02 [y] snes_conv_reason:   11
  newton =   1 [     158] linear =   136 [     21343] cuts =  0 [   0]
  --> max chng: dpmx=   4.6566E-10 dtmpmx=   1.0379E-10

== TH FLOW =====================================================================
 Step    158 Time=  7.30000E+00 Dt=  5.00000E-02 [y] snes_conv_reason:   11
  newton =   1 [     159] linear =   138 [     21481] cuts =  0 [   0]
  --> max chng: dpmx=   3.4925E-10 dtmpmx=   1.0601E-10

== TH FLOW =====================================================================
 Step    159 Time=  7.35000E+00 Dt=  5.00000E-02 [y] snes_conv_reason:   11
  newton =   1 [     160] linear =   132 [     21613] cuts =  0 [   0]
  --> max chng: dpmx=   5.8208E-10 dtmpmx=   1.0593E-10

== TH FLOW =====================================================================
 Step    160 Time=  7.40000E+00 Dt=  5.00000E-02 [y] snes_conv_reason:   11
  newton =   1 [     161] linear =   139 [     21752] cuts =  0 [   0]
  --> max chng: dpmx=   3.4925E-10 dtmpmx=   1.0966E-10

== TH FLOW =====================================================================
 Step    161 Time=  7.45000E+00 Dt=  5.00000E-02 [y] snes_conv_reason:   11
  newton =   1 [     162] linear =   132 [     21884] cuts =  0 [   0]
  --> max chng: dpmx=   4.6566E-10 dtmpmx=   1.0006E-10

== TH FLOW =====================================================================
 Step    162 Time=  7.50000E+00 Dt=  5.00000E-02 [y] snes_conv_reason:   11
  newton =   1 [     163] linear =   125 [     22009] cuts =  0 [   0]
  --> max chng: dpmx=   4.6566E-10 dtmpmx=   1.0177E-10

== TH FLOW =====================================================================
 Step    163 Time=  7.55000E+00 Dt=  5.00000E-02 [y] snes_conv_reason:   11
  newton =   1 [     164] linear =   138 [     22147] cuts =  0 [   0]
  --> max chng: dpmx=   4.6566E-10 dtmpmx=   1.1444E-10

== TH FLOW =====================================================================
 Step    164 Time=  7.60000E+00 Dt=  5.00000E-02 [y] snes_conv_reason:   11
  newton =   1 [     165] linear =   157 [     22304] cuts =  0 [   0]
  --> max chng: dpmx=   4.6566E-10 dtmpmx=   1.0376E-10

== TH FLOW =====================================================================
 Step    165 Time=  7.65000E+00 Dt=  5.00000E-02 [y] snes_conv_reason:   11
  newton =   1 [     166] linear =   136 [     22440] cuts =  0 [   0]
  --> max chng: dpmx=   3.4925E-10 dtmpmx=   1.1403E-10

== TH FLOW =====================================================================
 Step    166 Time=  7.70000E+00 Dt=  5.00000E-02 [y] snes_conv_reason:   11
  newton =   1 [     167] linear =   146 [     22586] cuts =  0 [   0]
  --> max chng: dpmx=   3.4925E-10 dtmpmx=   1.0396E-10

== TH FLOW =====================================================================
 Step    167 Time=  7.75000E+00 Dt=  5.00000E-02 [y] snes_conv_reason:   11
  newton =   1 [     168] linear =   138 [     22724] cuts =  0 [   0]
  --> max chng: dpmx=   4.6566E-10 dtmpmx=   1.0823E-10

== TH FLOW =====================================================================
 Step    168 Time=  7.80000E+00 Dt=  5.00000E-02 [y] snes_conv_reason:   11
  newton =   1 [     169] linear =   140 [     22864] cuts =  0 [   0]
  --> max chng: dpmx=   4.6566E-10 dtmpmx=   1.1593E-10

== TH FLOW =====================================================================
 Step    169 Time=  7.85000E+00 Dt=  5.00000E-02 [y] snes_conv_reason:   11
  newton =   1 [     170] linear =   155 [     23019] cuts =  0 [   0]
  --> max chng: dpmx=   4.6566E-10 dtmpmx=   1.0418E-10

== TH FLOW =====================================================================
 Step    170 Time=  7.90000E+00 Dt=  5.00000E-02 [y] snes_conv_reason:   11
  newton =   1 [     171] linear =   142 [     23161] cuts =  0 [   0]
  --> max chng: dpmx=   3.4925E-10 dtmpmx=   1.1392E-10

== TH FLOW =====================================================================
 Step    171 Time=  7.95000E+00 Dt=  5.00000E-02 [y] snes_conv_reason:   11
  newton =   1 [     172] linear =   128 [     23289] cuts =  0 [   0]
  --> max chng: dpmx=   4.6566E-10 dtmpmx=   1.0169E-10

== TH FLOW =====================================================================
 Step    172 Time=  8.00000E+00 Dt=  5.00000E-02 [y] snes_conv_reason:   11
  newton =   1 [     173] linear =   150 [     23439] cuts =  0 [   0]
  --> max chng: dpmx=   3.4925E-10 dtmpmx=   1.1209E-10

== TH FLOW =====================================================================
 Step    173 Time=  8.05000E+00 Dt=  5.00000E-02 [y] snes_conv_reason:   11
  newton =   1 [     174] linear =   141 [     23580] cuts =  0 [   0]
  --> max chng: dpmx=   3.4925E-10 dtmpmx=   1.0344E-10

== TH FLOW =====================================================================
 Step    174 Time=  8.10000E+00 Dt=  5.00000E-02 [y] snes_conv_reason:   11
  newton =   1 [     175] linear =   147 [     23727] cuts =  0 [   0]
  --> max chng: dpmx=   3.4925E-10 dtmpmx=   1.0500E-10

== TH FLOW =====================================================================
 Step    175 Time=  8.15000E+00 Dt=  5.00000E-02 [y] snes_conv_reason:   11
  newton =   1 [     176] linear =   146 [     23873] cuts =  0 [   0]
  --> max chng: dpmx=   4.6566E-10 dtmpmx=   1.1663E-10

== TH FLOW =====================================================================
 Step    176 Time=  8.20000E+00 Dt=  5.00000E-02 [y] snes_conv_reason:   11
  newton =   1 [     177] linear =   119 [     23992] cuts =  0 [   0]
  --> max chng: dpmx=   3.4925E-10 dtmpmx=   1.1242E-10

== TH FLOW =====================================================================
 Step    177 Time=  8.25000E+00 Dt=  5.00000E-02 [y] snes_conv_reason:   11
  newton =   1 [     178] linear =   131 [     24123] cuts =  0 [   0]
  --> max chng: dpmx=   3.4925E-10 dtmpmx=   1.0758E-10

== TH FLOW =====================================================================
 Step    178 Time=  8.30000E+00 Dt=  5.00000E-02 [y] snes_conv_reason:   11
  newton =   1 [     179] linear =   141 [     24264] cuts =  0 [   0]
  --> max chng: dpmx=   3.4925E-10 dtmpmx=   1.0887E-10

== TH FLOW =====================================================================
 Step    179 Time=  8.35000E+00 Dt=  5.00000E-02 [y] snes_conv_reason:   11
  newton =   1 [     180] linear =   138 [     24402] cuts =  0 [   0]
  --> max chng: dpmx=   4.6566E-10 dtmpmx=   1.1185E-10

== TH FLOW =====================================================================
 Step    180 Time=  8.40000E+00 Dt=  5.00000E-02 [y] snes_conv_reason:   11
  newton =   1 [     181] linear =   144 [     24546] cuts =  0 [   0]
  --> max chng: dpmx=   4.6566E-10 dtmpmx=   9.9941E-11

== TH FLOW =====================================================================
 Step    181 Time=  8.45000E+00 Dt=  5.00000E-02 [y] snes_conv_reason:   11
  newton =   1 [     182] linear =   134 [     24680] cuts =  0 [   0]
  --> max chng: dpmx=   3.4925E-10 dtmpmx=   1.0668E-10

== TH FLOW =====================================================================
 Step    182 Time=  8.50000E+00 Dt=  5.00000E-02 [y] snes_conv_reason:   11
  newton =   1 [     183] linear =   146 [     24826] cuts =  0 [   0]
  --> max chng: dpmx=   4.6566E-10 dtmpmx=   1.0391E-10

== TH FLOW =====================================================================
 Step    183 Time=  8.55000E+00 Dt=  5.00000E-02 [y] snes_conv_reason:   11
  newton =   1 [     184] linear =   137 [     24963] cuts =  0 [   0]
  --> max chng: dpmx=   4.6566E-10 dtmpmx=   1.0722E-10

== TH FLOW =====================================================================
 Step    184 Time=  8.60000E+00 Dt=  5.00000E-02 [y] snes_conv_reason:   11
  newton =   1 [     185] linear =   114 [     25077] cuts =  0 [   0]
  --> max chng: dpmx=   3.4925E-10 dtmpmx=   1.1015E-10

== TH FLOW =====================================================================
 Step    185 Time=  8.65000E+00 Dt=  5.00000E-02 [y] snes_conv_reason:   11
  newton =   1 [     186] linear =   135 [     25212] cuts =  0 [   0]
  --> max chng: dpmx=   4.6566E-10 dtmpmx=   1.1231E-10

== TH FLOW =====================================================================
 Step    186 Time=  8.70000E+00 Dt=  5.00000E-02 [y] snes_conv_reason:   11
  newton =   1 [     187] linear =   127 [     25339] cuts =  0 [   0]
  --> max chng: dpmx=   4.6566E-10 dtmpmx=   1.0555E-10

== TH FLOW =====================================================================
 Step    187 Time=  8.75000E+00 Dt=  5.00000E-02 [y] snes_conv_reason:   11
  newton =   1 [     188] linear =   140 [     25479] cuts =  0 [   0]
  --> max chng: dpmx=   4.6566E-10 dtmpmx=   1.0488E-10

== TH FLOW =====================================================================
 Step    188 Time=  8.80000E+00 Dt=  5.00000E-02 [y] snes_conv_reason:   11
  newton =   1 [     189] linear =   131 [     25610] cuts =  0 [   0]
  --> max chng: dpmx=   4.6566E-10 dtmpmx=   9.8112E-11

== TH FLOW =====================================================================
 Step    189 Time=  8.85000E+00 Dt=  5.00000E-02 [y] snes_conv_reason:   11
  newton =   1 [     190] linear =   136 [     25746] cuts =  0 [   0]
  --> max chng: dpmx=   3.4925E-10 dtmpmx=   9.5195E-11

== TH FLOW =====================================================================
 Step    190 Time=  8.90000E+00 Dt=  5.00000E-02 [y] snes_conv_reason:   11
  newton =   1 [     191] linear =   130 [     25876] cuts =  0 [   0]
  --> max chng: dpmx=   3.4925E-10 dtmpmx=   1.1288E-10

== TH FLOW =====================================================================
 Step    191 Time=  8.95000E+00 Dt=  5.00000E-02 [y] snes_conv_reason:   11
  newton =   1 [     192] linear =   132 [     26008] cuts =  0 [   0]
  --> max chng: dpmx=   4.6566E-10 dtmpmx=   1.0542E-10

== TH FLOW =====================================================================
 Step    192 Time=  9.00000E+00 Dt=  5.00000E-02 [y] snes_conv_reason:   11
  newton =   1 [     193] linear =   133 [     26141] cuts =  0 [   0]
  --> max chng: dpmx=   4.6566E-10 dtmpmx=   9.9760E-11

== TH FLOW =====================================================================
 Step    193 Time=  9.05000E+00 Dt=  5.00000E-02 [y] snes_conv_reason:   11
  newton =   1 [     194] linear =   112 [     26253] cuts =  0 [   0]
  --> max chng: dpmx=   3.4925E-10 dtmpmx=   1.0120E-10

== TH FLOW =====================================================================
 Step    194 Time=  9.10000E+00 Dt=  5.00000E-02 [y] snes_conv_reason:   11
  newton =   1 [     195] linear =   132 [     26385] cuts =  0 [   0]
  --> max chng: dpmx=   4.6566E-10 dtmpmx=   1.2321E-10

== TH FLOW =====================================================================
 Step    195 Time=  9.15000E+00 Dt=  5.00000E-02 [y] snes_conv_reason:   11
  newton =   1 [     196] linear =   158 [     26543] cuts =  0 [   0]
  --> max chng: dpmx=   5.8208E-10 dtmpmx=   1.1557E-10

== TH FLOW =====================================================================
 Step    196 Time=  9.20000E+00 Dt=  5.00000E-02 [y] snes_conv_reason:   11
  newton =   1 [     197] linear =   122 [     26665] cuts =  0 [   0]
  --> max chng: dpmx=   4.6566E-10 dtmpmx=   1.2309E-10

== TH FLOW =====================================================================
 Step    197 Time=  9.25000E+00 Dt=  5.00000E-02 [y] snes_conv_reason:   11
  newton =   1 [     198] linear =   139 [     26804] cuts =  0 [   0]
  --> max chng: dpmx=   4.6566E-10 dtmpmx=   1.1867E-10

== TH FLOW =====================================================================
 Step    198 Time=  9.30000E+00 Dt=  5.00000E-02 [y] snes_conv_reason:   11
  newton =   1 [     199] linear =   153 [     26957] cuts =  0 [   0]
  --> max chng: dpmx=   5.8208E-10 dtmpmx=   1.0076E-10

== TH FLOW =====================================================================
 Step    199 Time=  9.35000E+00 Dt=  5.00000E-02 [y] snes_conv_reason:   11
  newton =   1 [     200] linear =   149 [     27106] cuts =  0 [   0]
  --> max chng: dpmx=   4.6566E-10 dtmpmx=   1.0302E-10

== TH FLOW =====================================================================
 Step    200 Time=  9.40000E+00 Dt=  5.00000E-02 [y] snes_conv_reason:   11
  newton =   1 [     201] linear =   131 [     27237] cuts =  0 [   0]
  --> max chng: dpmx=   4.6566E-10 dtmpmx=   9.8089E-11

== TH FLOW =====================================================================
 Step    201 Time=  9.45000E+00 Dt=  5.00000E-02 [y] snes_conv_reason:   11
  newton =   1 [     202] linear =   136 [     27373] cuts =  0 [   0]
  --> max chng: dpmx=   4.6566E-10 dtmpmx=   1.0780E-10

== TH FLOW =====================================================================
 Step    202 Time=  9.50000E+00 Dt=  5.00000E-02 [y] snes_conv_reason:   11
  newton =   1 [     203] linear =   124 [     27497] cuts =  0 [   0]
  --> max chng: dpmx=   4.6566E-10 dtmpmx=   1.0622E-10

== TH FLOW =====================================================================
 Step    203 Time=  9.55000E+00 Dt=  5.00000E-02 [y] snes_conv_reason:   11
  newton =   1 [     204] linear =   151 [     27648] cuts =  0 [   0]
  --> max chng: dpmx=   3.4925E-10 dtmpmx=   1.0646E-10

== TH FLOW =====================================================================
 Step    204 Time=  9.60000E+00 Dt=  5.00000E-02 [y] snes_conv_reason:   11
  newton =   1 [     205] linear =   146 [     27794] cuts =  0 [   0]
  --> max chng: dpmx=   3.4925E-10 dtmpmx=   1.1365E-10

== TH FLOW =====================================================================
 Step    205 Time=  9.65000E+00 Dt=  5.00000E-02 [y] snes_conv_reason:   11
  newton =   1 [     206] linear =   142 [     27936] cuts =  0 [   0]
  --> max chng: dpmx=   4.6566E-10 dtmpmx=   1.0533E-10

== TH FLOW =====================================================================
 Step    206 Time=  9.70000E+00 Dt=  5.00000E-02 [y] snes_conv_reason:   11
  newton =   1 [     207] linear =   123 [     28059] cuts =  0 [   0]
  --> max chng: dpmx=   3.4925E-10 dtmpmx=   1.1235E-10

== TH FLOW =====================================================================
 Step    207 Time=  9.75000E+00 Dt=  5.00000E-02 [y] snes_conv_reason:   11
  newton =   1 [     208] linear =   139 [     28198] cuts =  0 [   0]
  --> max chng: dpmx=   4.6566E-10 dtmpmx=   1.0109E-10

== TH FLOW =====================================================================
 Step    208 Time=  9.80000E+00 Dt=  5.00000E-02 [y] snes_conv_reason:   11
  newton =   1 [     209] linear =   141 [     28339] cuts =  0 [   0]
  --> max chng: dpmx=   4.6566E-10 dtmpmx=   1.0999E-10

== TH FLOW =====================================================================
 Step    209 Time=  9.85000E+00 Dt=  5.00000E-02 [y] snes_conv_reason:   11
  newton =   1 [     210] linear =   114 [     28453] cuts =  0 [   0]
  --> max chng: dpmx=   4.6566E-10 dtmpmx=   1.1029E-10

== TH FLOW =====================================================================
 Step    210 Time=  9.90000E+00 Dt=  5.00000E-02 [y] snes_conv_reason:   11
  newton =   1 [     211] linear =   138 [     28591] cuts =  0 [   0]
  --> max chng: dpmx=   4.6566E-10 dtmpmx=   1.0594E-10

== TH FLOW =====================================================================
 Step    211 Time=  9.95000E+00 Dt=  5.00000E-02 [y] snes_conv_reason:   11
  newton =   1 [     212] linear =   129 [     28720] cuts =  0 [   0]
  --> max chng: dpmx=   4.6566E-10 dtmpmx=   1.0611E-10

== TH FLOW =====================================================================
 Step    212 Time=  1.00000E+01 Dt=  5.00000E-02 [y] snes_conv_reason:   11
  newton =   1 [     213] linear =   125 [     28845] cuts =  0 [   0]
  --> max chng: dpmx=   4.6566E-10 dtmpmx=   1.1120E-10

== TH FLOW =====================================================================
 Step    213 Time=  1.00500E+01 Dt=  5.00000E-02 [y] snes_conv_reason:   11
  newton =   1 [     214] linear =   146 [     28991] cuts =  0 [   0]
  --> max chng: dpmx=   3.4925E-10 dtmpmx=   1.1133E-10

== TH FLOW =====================================================================
 Step    214 Time=  1.01000E+01 Dt=  5.00000E-02 [y] snes_conv_reason:   11
  newton =   1 [     215] linear =   137 [     29128] cuts =  0 [   0]
  --> max chng: dpmx=   3.4925E-10 dtmpmx=   1.0086E-10

== TH FLOW =====================================================================
 Step    215 Time=  1.01500E+01 Dt=  5.00000E-02 [y] snes_conv_reason:   11
  newton =   1 [     216] linear =   149 [     29277] cuts =  0 [   0]
  --> max chng: dpmx=   4.6566E-10 dtmpmx=   1.1434E-10

== TH FLOW =====================================================================
 Step    216 Time=  1.02000E+01 Dt=  5.00000E-02 [y] snes_conv_reason:   11
  newton =   1 [     217] linear =   133 [     29410] cuts =  0 [   0]
  --> max chng: dpmx=   3.4925E-10 dtmpmx=   1.0786E-10

== TH FLOW =====================================================================
 Step    217 Time=  1.02500E+01 Dt=  5.00000E-02 [y] snes_conv_reason:   11
  newton =   1 [     218] linear =    89 [     29499] cuts =  0 [   0]
  --> max chng: dpmx=   3.4925E-10 dtmpmx=   1.1335E-10

== TH FLOW =====================================================================
 Step    218 Time=  1.03000E+01 Dt=  5.00000E-02 [y] snes_conv_reason:   11
  newton =   1 [     219] linear =   148 [     29647] cuts =  0 [   0]
  --> max chng: dpmx=   4.6566E-10 dtmpmx=   1.2515E-10

== TH FLOW =====================================================================
 Step    219 Time=  1.03500E+01 Dt=  5.00000E-02 [y] snes_conv_reason:   11
  newton =   1 [     220] linear =   131 [     29778] cuts =  0 [   0]
  --> max chng: dpmx=   3.4925E-10 dtmpmx=   1.1678E-10

== TH FLOW =====================================================================
 Step    220 Time=  1.04000E+01 Dt=  5.00000E-02 [y] snes_conv_reason:   11
  newton =   1 [     221] linear =   126 [     29904] cuts =  0 [   0]
  --> max chng: dpmx=   3.4925E-10 dtmpmx=   1.0092E-10

== TH FLOW =====================================================================
 Step    221 Time=  1.04500E+01 Dt=  5.00000E-02 [y] snes_conv_reason:   11
  newton =   1 [     222] linear =   154 [     30058] cuts =  0 [   0]
  --> max chng: dpmx=   4.6566E-10 dtmpmx=   1.0725E-10

== TH FLOW =====================================================================
 Step    222 Time=  1.05000E+01 Dt=  5.00000E-02 [y] snes_conv_reason:   11
  newton =   1 [     223] linear =   134 [     30192] cuts =  0 [   0]
  --> max chng: dpmx=   4.6566E-10 dtmpmx=   1.1800E-10

== TH FLOW =====================================================================
 Step    223 Time=  1.05500E+01 Dt=  5.00000E-02 [y] snes_conv_reason:   11
  newton =   1 [     224] linear =   150 [     30342] cuts =  0 [   0]
  --> max chng: dpmx=   5.8208E-10 dtmpmx=   1.0415E-10

== TH FLOW =====================================================================
 Step    224 Time=  1.06000E+01 Dt=  5.00000E-02 [y] snes_conv_reason:   11
  newton =   1 [     225] linear =    94 [     30436] cuts =  0 [   0]
  --> max chng: dpmx=   3.4925E-10 dtmpmx=   1.0892E-10

== TH FLOW =====================================================================
 Step    225 Time=  1.06500E+01 Dt=  5.00000E-02 [y] snes_conv_reason:   11
  newton =   1 [     226] linear =   119 [     30555] cuts =  0 [   0]
  --> max chng: dpmx=   3.4925E-10 dtmpmx=   1.1194E-10

== TH FLOW =====================================================================
 Step    226 Time=  1.07000E+01 Dt=  5.00000E-02 [y] snes_conv_reason:   11
  newton =   1 [     227] linear =   104 [     30659] cuts =  0 [   0]
  --> max chng: dpmx=   4.6566E-10 dtmpmx=   1.1039E-10

== TH FLOW =====================================================================
 Step    227 Time=  1.07500E+01 Dt=  5.00000E-02 [y] snes_conv_reason:   11
  newton =   1 [     228] linear =   144 [     30803] cuts =  0 [   0]
  --> max chng: dpmx=   4.6566E-10 dtmpmx=   1.1073E-10

== TH FLOW =====================================================================
 Step    228 Time=  1.08000E+01 Dt=  5.00000E-02 [y] snes_conv_reason:   11
  newton =   1 [     229] linear =   149 [     30952] cuts =  0 [   0]
  --> max chng: dpmx=   3.4925E-10 dtmpmx=   1.0090E-10

== TH FLOW =====================================================================
 Step    229 Time=  1.08500E+01 Dt=  5.00000E-02 [y] snes_conv_reason:   11
  newton =   1 [     230] linear =   137 [     31089] cuts =  0 [   0]
  --> max chng: dpmx=   4.6566E-10 dtmpmx=   1.2044E-10

== TH FLOW =====================================================================
 Step    230 Time=  1.09000E+01 Dt=  5.00000E-02 [y] snes_conv_reason:   11
  newton =   1 [     231] linear =   126 [     31215] cuts =  0 [   0]
  --> max chng: dpmx=   4.6566E-10 dtmpmx=   1.0374E-10

== TH FLOW =====================================================================
 Step    231 Time=  1.09500E+01 Dt=  5.00000E-02 [y] snes_conv_reason:   11
  newton =   1 [     232] linear =   138 [     31353] cuts =  0 [   0]
  --> max chng: dpmx=   5.8208E-10 dtmpmx=   1.0434E-10

== TH FLOW =====================================================================
 Step    232 Time=  1.10000E+01 Dt=  5.00000E-02 [y] snes_conv_reason:   11
  newton =   1 [     233] linear =   132 [     31485] cuts =  0 [   0]
  --> max chng: dpmx=   4.6566E-10 dtmpmx=   1.1029E-10

== TH FLOW =====================================================================
 Step    233 Time=  1.10500E+01 Dt=  5.00000E-02 [y] snes_conv_reason:   11
  newton =   1 [     234] linear =   141 [     31626] cuts =  0 [   0]
  --> max chng: dpmx=   4.6566E-10 dtmpmx=   1.1162E-10

== TH FLOW =====================================================================
 Step    234 Time=  1.11000E+01 Dt=  5.00000E-02 [y] snes_conv_reason:   11
  newton =   1 [     235] linear =   145 [     31771] cuts =  0 [   0]
  --> max chng: dpmx=   4.6566E-10 dtmpmx=   1.0737E-10

== TH FLOW =====================================================================
 Step    235 Time=  1.11500E+01 Dt=  5.00000E-02 [y] snes_conv_reason:   11
  newton =   1 [     236] linear =   133 [     31904] cuts =  0 [   0]
  --> max chng: dpmx=   4.6566E-10 dtmpmx=   1.1342E-10

== TH FLOW =====================================================================
 Step    236 Time=  1.12000E+01 Dt=  5.00000E-02 [y] snes_conv_reason:   11
  newton =   1 [     237] linear =   137 [     32041] cuts =  0 [   0]
  --> max chng: dpmx=   4.6566E-10 dtmpmx=   1.0333E-10

== TH FLOW =====================================================================
 Step    237 Time=  1.12500E+01 Dt=  5.00000E-02 [y] snes_conv_reason:   11
  newton =   1 [     238] linear =   151 [     32192] cuts =  0 [   0]
  --> max chng: dpmx=   4.6566E-10 dtmpmx=   1.0772E-10

== TH FLOW =====================================================================
 Step    238 Time=  1.13000E+01 Dt=  5.00000E-02 [y] snes_conv_reason:   11
  newton =   1 [     239] linear =   134 [     32326] cuts =  0 [   0]
  --> max chng: dpmx=   5.8208E-10 dtmpmx=   1.1236E-10

== TH FLOW =====================================================================
 Step    239 Time=  1.13500E+01 Dt=  5.00000E-02 [y] snes_conv_reason:   11
  newton =   1 [     240] linear =   112 [     32438] cuts =  0 [   0]
  --> max chng: dpmx=   4.6566E-10 dtmpmx=   1.1197E-10

== TH FLOW =====================================================================
 Step    240 Time=  1.14000E+01 Dt=  5.00000E-02 [y] snes_conv_reason:   11
  newton =   1 [     241] linear =   138 [     32576] cuts =  0 [   0]
  --> max chng: dpmx=   4.6566E-10 dtmpmx=   1.1677E-10

== TH FLOW =====================================================================
 Step    241 Time=  1.14500E+01 Dt=  5.00000E-02 [y] snes_conv_reason:   11
  newton =   1 [     242] linear =   122 [     32698] cuts =  0 [   0]
  --> max chng: dpmx=   4.6566E-10 dtmpmx=   1.2196E-10

== TH FLOW =====================================================================
 Step    242 Time=  1.15000E+01 Dt=  5.00000E-02 [y] snes_conv_reason:   11
  newton =   1 [     243] linear =   120 [     32818] cuts =  0 [   0]
  --> max chng: dpmx=   3.4925E-10 dtmpmx=   1.1179E-10

== TH FLOW =====================================================================
 Step    243 Time=  1.15500E+01 Dt=  5.00000E-02 [y] snes_conv_reason:   11
  newton =   1 [     244] linear =   136 [     32954] cuts =  0 [   0]
  --> max chng: dpmx=   3.4925E-10 dtmpmx=   1.1083E-10

== TH FLOW =====================================================================
 Step    244 Time=  1.16000E+01 Dt=  5.00000E-02 [y] snes_conv_reason:   11
  newton =   1 [     245] linear =   119 [     33073] cuts =  0 [   0]
  --> max chng: dpmx=   4.6566E-10 dtmpmx=   1.0281E-10

== TH FLOW =====================================================================
 Step    245 Time=  1.16500E+01 Dt=  5.00000E-02 [y] snes_conv_reason:   11
  newton =   1 [     246] linear =   140 [     33213] cuts =  0 [   0]
  --> max chng: dpmx=   4.6566E-10 dtmpmx=   1.0574E-10

== TH FLOW =====================================================================
 Step    246 Time=  1.17000E+01 Dt=  5.00000E-02 [y] snes_conv_reason:   11
  newton =   1 [     247] linear =    99 [     33312] cuts =  0 [   0]
  --> max chng: dpmx=   3.4925E-10 dtmpmx=   1.0656E-10

== TH FLOW =====================================================================
 Step    247 Time=  1.17500E+01 Dt=  5.00000E-02 [y] snes_conv_reason:   11
  newton =   1 [     248] linear =   150 [     33462] cuts =  0 [   0]
  --> max chng: dpmx=   4.6566E-10 dtmpmx=   1.0083E-10

== TH FLOW =====================================================================
 Step    248 Time=  1.18000E+01 Dt=  5.00000E-02 [y] snes_conv_reason:   11
  newton =   1 [     249] linear =   139 [     33601] cuts =  0 [   0]
  --> max chng: dpmx=   5.8208E-10 dtmpmx=   1.0954E-10

== TH FLOW =====================================================================
 Step    249 Time=  1.18500E+01 Dt=  5.00000E-02 [y] snes_conv_reason:   11
  newton =   1 [     250] linear =   137 [     33738] cuts =  0 [   0]
  --> max chng: dpmx=   4.6566E-10 dtmpmx=   1.1332E-10

== TH FLOW =====================================================================
 Step    250 Time=  1.19000E+01 Dt=  5.00000E-02 [y] snes_conv_reason:   11
  newton =   1 [     251] linear =   133 [     33871] cuts =  0 [   0]
  --> max chng: dpmx=   4.6566E-10 dtmpmx=   1.1259E-10

== TH FLOW =====================================================================
 Step    251 Time=  1.19500E+01 Dt=  5.00000E-02 [y] snes_conv_reason:   11
  newton =   1 [     252] linear =   133 [     34004] cuts =  0 [   0]
  --> max chng: dpmx=   4.6566E-10 dtmpmx=   1.1306E-10

== TH FLOW =====================================================================
 Step    252 Time=  1.20000E+01 Dt=  5.00000E-02 [y] snes_conv_reason:   11
  newton =   1 [     253] linear =   125 [     34129] cuts =  0 [   0]
  --> max chng: dpmx=   5.8208E-10 dtmpmx=   1.0202E-10

== TH FLOW =====================================================================
 Step    253 Time=  1.20500E+01 Dt=  5.00000E-02 [y] snes_conv_reason:   11
  newton =   1 [     254] linear =   145 [     34274] cuts =  0 [   0]
  --> max chng: dpmx=   4.6566E-10 dtmpmx=   1.3077E-10

== TH FLOW =====================================================================
 Step    254 Time=  1.21000E+01 Dt=  5.00000E-02 [y] snes_conv_reason:   11
  newton =   1 [     255] linear =   131 [     34405] cuts =  0 [   0]
  --> max chng: dpmx=   3.4925E-10 dtmpmx=   1.0671E-10

== TH FLOW =====================================================================
 Step    255 Time=  1.21500E+01 Dt=  5.00000E-02 [y] snes_conv_reason:   11
  newton =   1 [     256] linear =   141 [     34546] cuts =  0 [   0]
  --> max chng: dpmx=   5.8208E-10 dtmpmx=   1.0573E-10

== TH FLOW =====================================================================
 Step    256 Time=  1.22000E+01 Dt=  5.00000E-02 [y] snes_conv_reason:   11
  newton =   1 [     257] linear =   136 [     34682] cuts =  0 [   0]
  --> max chng: dpmx=   3.4925E-10 dtmpmx=   1.0484E-10

== TH FLOW =====================================================================
 Step    257 Time=  1.22500E+01 Dt=  5.00000E-02 [y] snes_conv_reason:   11
  newton =   1 [     258] linear =   102 [     34784] cuts =  0 [   0]
  --> max chng: dpmx=   3.4925E-10 dtmpmx=   9.9448E-11

[...]
 Step    493 Time=  2.40500E+01 Dt=  5.00000E-02 [y] snes_conv_reason:   11
  newton =   1 [     494] linear =   129 [     66039] cuts =  0 [   0]
  --> max chng: dpmx=   3.4925E-10 dtmpmx=   1.0092E-10

== TH FLOW =====================================================================
 Step    494 Time=  2.41000E+01 Dt=  5.00000E-02 [y] snes_conv_reason:   11
  newton =   1 [     495] linear =   129 [     66168] cuts =  0 [   0]
  --> max chng: dpmx=   4.6566E-10 dtmpmx=   1.0585E-10

== TH FLOW =====================================================================
 Step    495 Time=  2.41500E+01 Dt=  5.00000E-02 [y] snes_conv_reason:   11
  newton =   1 [     496] linear =   111 [     66279] cuts =  0 [   0]
  --> max chng: dpmx=   3.4925E-10 dtmpmx=   1.0343E-10

== TH FLOW =====================================================================
 Step    496 Time=  2.42000E+01 Dt=  5.00000E-02 [y] snes_conv_reason:   11
  newton =   1 [     497] linear =   137 [     66416] cuts =  0 [   0]
  --> max chng: dpmx=   4.6566E-10 dtmpmx=   9.7302E-11

== TH FLOW =====================================================================
 Step    497 Time=  2.42500E+01 Dt=  5.00000E-02 [y] snes_conv_reason:   11
  newton =   1 [     498] linear =   125 [     66541] cuts =  0 [   0]
  --> max chng: dpmx=   5.8208E-10 dtmpmx=   9.9037E-11

== TH FLOW =====================================================================
 Step    498 Time=  2.43000E+01 Dt=  5.00000E-02 [y] snes_conv_reason:   11
  newton =   1 [     499] linear =   143 [     66684] cuts =  0 [   0]
  --> max chng: dpmx=   4.6566E-10 dtmpmx=   1.1570E-10

== TH FLOW =====================================================================
 Step    499 Time=  2.43500E+01 Dt=  5.00000E-02 [y] snes_conv_reason:   11
  newton =   1 [     500] linear =   123 [     66807] cuts =  0 [   0]
  --> max chng: dpmx=   3.4925E-10 dtmpmx=   1.0535E-10

== TH FLOW =====================================================================
 Step    500 Time=  2.44000E+01 Dt=  5.00000E-02 [y] snes_conv_reason:   11
  newton =   1 [     501] linear =   142 [     66949] cuts =  0 [   0]
  --> max chng: dpmx=   4.6566E-10 dtmpmx=   1.2348E-10

== TH FLOW =====================================================================
 Step    501 Time=  2.44500E+01 Dt=  5.00000E-02 [y] snes_conv_reason:   11
  newton =   1 [     502] linear =   141 [     67090] cuts =  0 [   0]
  --> max chng: dpmx=   4.6566E-10 dtmpmx=   1.1307E-10

== TH FLOW =====================================================================
 Step    502 Time=  2.45000E+01 Dt=  5.00000E-02 [y] snes_conv_reason:   11
  newton =   1 [     503] linear =   105 [     67195] cuts =  0 [   0]
  --> max chng: dpmx=   3.4925E-10 dtmpmx=   1.0731E-10

== TH FLOW =====================================================================
 Step    503 Time=  2.45500E+01 Dt=  5.00000E-02 [y] snes_conv_reason:   11
  newton =   1 [     504] linear =   114 [     67309] cuts =  0 [   0]
  --> max chng: dpmx=   4.6566E-10 dtmpmx=   1.1545E-10

== TH FLOW =====================================================================
 Step    504 Time=  2.46000E+01 Dt=  5.00000E-02 [y] snes_conv_reason:   11
  newton =   1 [     505] linear =   131 [     67440] cuts =  0 [   0]
  --> max chng: dpmx=   4.6566E-10 dtmpmx=   1.2294E-10

== TH FLOW =====================================================================
 Step    505 Time=  2.46500E+01 Dt=  5.00000E-02 [y] snes_conv_reason:   11
  newton =   1 [     506] linear =   126 [     67566] cuts =  0 [   0]
  --> max chng: dpmx=   3.4925E-10 dtmpmx=   1.1078E-10

== TH FLOW =====================================================================
 Step    506 Time=  2.47000E+01 Dt=  5.00000E-02 [y] snes_conv_reason:   11
  newton =   1 [     507] linear =   138 [     67704] cuts =  0 [   0]
  --> max chng: dpmx=   3.4925E-10 dtmpmx=   9.6433E-11

== TH FLOW =====================================================================
 Step    507 Time=  2.47500E+01 Dt=  5.00000E-02 [y] snes_conv_reason:   11
  newton =   1 [     508] linear =   126 [     67830] cuts =  0 [   0]
  --> max chng: dpmx=   3.4925E-10 dtmpmx=   1.0644E-10

== TH FLOW =====================================================================
 Step    508 Time=  2.48000E+01 Dt=  5.00000E-02 [y] snes_conv_reason:   11
  newton =   1 [     509] linear =   138 [     67968] cuts =  0 [   0]
  --> max chng: dpmx=   4.6566E-10 dtmpmx=   9.6303E-11

== TH FLOW =====================================================================
 Step    509 Time=  2.48500E+01 Dt=  5.00000E-02 [y] snes_conv_reason:   11
  newton =   1 [     510] linear =   125 [     68093] cuts =  0 [   0]
  --> max chng: dpmx=   4.6566E-10 dtmpmx=   1.0285E-10

== TH FLOW =====================================================================
 Step    510 Time=  2.49000E+01 Dt=  5.00000E-02 [y] snes_conv_reason:   11
  newton =   1 [     511] linear =   141 [     68234] cuts =  0 [   0]
  --> max chng: dpmx=   3.4925E-10 dtmpmx=   1.0621E-10

== TH FLOW =====================================================================
 Step    511 Time=  2.49500E+01 Dt=  5.00000E-02 [y] snes_conv_reason:   11
  newton =   1 [     512] linear =   130 [     68364] cuts =  0 [   0]
  --> max chng: dpmx=   3.4925E-10 dtmpmx=   1.1363E-10

== TH FLOW =====================================================================
 Step    512 Time=  2.50000E+01 Dt=  5.00000E-02 [y] snes_conv_reason:   11
  newton =   1 [     513] linear =   153 [     68517] cuts =  0 [   0]
  --> max chng: dpmx=   4.6566E-10 dtmpmx=   1.1375E-10

== TH FLOW =====================================================================
 Step    513 Time=  2.50500E+01 Dt=  5.00000E-02 [y] snes_conv_reason:   11
  newton =   1 [     514] linear =   142 [     68659] cuts =  0 [   0]
  --> max chng: dpmx=   3.4925E-10 dtmpmx=   1.1236E-10

== TH FLOW =====================================================================
 Step    514 Time=  2.51000E+01 Dt=  5.00000E-02 [y] snes_conv_reason:   11
  newton =   1 [     515] linear =   100 [     68759] cuts =  0 [   0]
  --> max chng: dpmx=   4.6566E-10 dtmpmx=   1.1503E-10

== TH FLOW =====================================================================
 Step    515 Time=  2.51500E+01 Dt=  5.00000E-02 [y] snes_conv_reason:   11
  newton =   1 [     516] linear =   115 [     68874] cuts =  0 [   0]
  --> max chng: dpmx=   4.6566E-10 dtmpmx=   1.0877E-10

== TH FLOW =====================================================================
 Step    516 Time=  2.52000E+01 Dt=  5.00000E-02 [y] snes_conv_reason:   11
  newton =   1 [     517] linear =   127 [     69001] cuts =  0 [   0]
  --> max chng: dpmx=   3.4925E-10 dtmpmx=   9.8993E-11

== TH FLOW =====================================================================
 Step    517 Time=  2.52500E+01 Dt=  5.00000E-02 [y] snes_conv_reason:   11
  newton =   1 [     518] linear =   145 [     69146] cuts =  0 [   0]
  --> max chng: dpmx=   4.6566E-10 dtmpmx=   9.9014E-11

== TH FLOW =====================================================================
 Step    518 Time=  2.53000E+01 Dt=  5.00000E-02 [y] snes_conv_reason:   11
  newton =   1 [     519] linear =   148 [     69294] cuts =  0 [   0]
  --> max chng: dpmx=   4.6566E-10 dtmpmx=   1.0953E-10

== TH FLOW =====================================================================
 Step    519 Time=  2.53500E+01 Dt=  5.00000E-02 [y] snes_conv_reason:   11
  newton =   1 [     520] linear =   122 [     69416] cuts =  0 [   0]
  --> max chng: dpmx=   4.6566E-10 dtmpmx=   1.2157E-10

== TH FLOW =====================================================================
 Step    520 Time=  2.54000E+01 Dt=  5.00000E-02 [y] snes_conv_reason:   11
  newton =   1 [     521] linear =   118 [     69534] cuts =  0 [   0]
  --> max chng: dpmx=   4.6566E-10 dtmpmx=   1.0010E-10

== TH FLOW =====================================================================
 Step    521 Time=  2.54500E+01 Dt=  5.00000E-02 [y] snes_conv_reason:   11
  newton =   1 [     522] linear =   156 [     69690] cuts =  0 [   0]
  --> max chng: dpmx=   3.4925E-10 dtmpmx=   1.1366E-10

== TH FLOW =====================================================================
 Step    522 Time=  2.55000E+01 Dt=  5.00000E-02 [y] snes_conv_reason:   11
  newton =   1 [     523] linear =   132 [     69822] cuts =  0 [   0]
  --> max chng: dpmx=   4.6566E-10 dtmpmx=   9.5664E-11

== TH FLOW =====================================================================
 Step    523 Time=  2.55500E+01 Dt=  5.00000E-02 [y] snes_conv_reason:   11
  newton =   1 [     524] linear =   149 [     69971] cuts =  0 [   0]
  --> max chng: dpmx=   4.6566E-10 dtmpmx=   1.0878E-10

== TH FLOW =====================================================================
 Step    524 Time=  2.56000E+01 Dt=  5.00000E-02 [y] snes_conv_reason:   11
  newton =   1 [     525] linear =   120 [     70091] cuts =  0 [   0]
  --> max chng: dpmx=   3.4925E-10 dtmpmx=   1.0966E-10

== TH FLOW =====================================================================
 Step    525 Time=  2.56500E+01 Dt=  5.00000E-02 [y] snes_conv_reason:   11
  newton =   1 [     526] linear =   110 [     70201] cuts =  0 [   0]
  --> max chng: dpmx=   3.4925E-10 dtmpmx=   1.0644E-10

== TH FLOW =====================================================================
 Step    526 Time=  2.57000E+01 Dt=  5.00000E-02 [y] snes_conv_reason:   11
  newton =   1 [     527] linear =   108 [     70309] cuts =  0 [   0]
  --> max chng: dpmx=   4.6566E-10 dtmpmx=   9.9785E-11

== TH FLOW =====================================================================
 Step    527 Time=  2.57500E+01 Dt=  5.00000E-02 [y] snes_conv_reason:   11
  newton =   1 [     528] linear =   145 [     70454] cuts =  0 [   0]
  --> max chng: dpmx=   4.6566E-10 dtmpmx=   1.0408E-10

== TH FLOW =====================================================================
 Step    528 Time=  2.58000E+01 Dt=  5.00000E-02 [y] snes_conv_reason:   11
  newton =   1 [     529] linear =   141 [     70595] cuts =  0 [   0]
  --> max chng: dpmx=   3.4925E-10 dtmpmx=   9.8535E-11

== TH FLOW =====================================================================
 Step    529 Time=  2.58500E+01 Dt=  5.00000E-02 [y] snes_conv_reason:   11
  newton =   1 [     530] linear =   118 [     70713] cuts =  0 [   0]
  --> max chng: dpmx=   3.4925E-10 dtmpmx=   1.1414E-10

== TH FLOW =====================================================================
 Step    530 Time=  2.59000E+01 Dt=  5.00000E-02 [y] snes_conv_reason:   11
  newton =   1 [     531] linear =   140 [     70853] cuts =  0 [   0]
  --> max chng: dpmx=   3.4925E-10 dtmpmx=   1.1456E-10

== TH FLOW =====================================================================
 Step    531 Time=  2.59500E+01 Dt=  5.00000E-02 [y] snes_conv_reason:   11
  newton =   1 [     532] linear =   106 [     70959] cuts =  0 [   0]
  --> max chng: dpmx=   4.6566E-10 dtmpmx=   1.2803E-10

== TH FLOW =====================================================================
 Step    532 Time=  2.60000E+01 Dt=  5.00000E-02 [y] snes_conv_reason:   11
  newton =   1 [     533] linear =   148 [     71107] cuts =  0 [   0]
  --> max chng: dpmx=   5.8208E-10 dtmpmx=   1.0795E-10

== TH FLOW =====================================================================
 Step    533 Time=  2.60500E+01 Dt=  5.00000E-02 [y] snes_conv_reason:   11
  newton =   1 [     534] linear =   133 [     71240] cuts =  0 [   0]
  --> max chng: dpmx=   4.6566E-10 dtmpmx=   1.0275E-10

== TH FLOW =====================================================================
 Step    534 Time=  2.61000E+01 Dt=  5.00000E-02 [y] snes_conv_reason:   11
  newton =   1 [     535] linear =   146 [     71386] cuts =  0 [   0]
  --> max chng: dpmx=   4.6566E-10 dtmpmx=   1.1051E-10

== TH FLOW =====================================================================
 Step    535 Time=  2.61500E+01 Dt=  5.00000E-02 [y] snes_conv_reason:   11
  newton =   1 [     536] linear =   128 [     71514] cuts =  0 [   0]
  --> max chng: dpmx=   4.6566E-10 dtmpmx=   1.2567E-10

== TH FLOW =====================================================================
 Step    536 Time=  2.62000E+01 Dt=  5.00000E-02 [y] snes_conv_reason:   11
  newton =   1 [     537] linear =   143 [     71657] cuts =  0 [   0]
  --> max chng: dpmx=   4.6566E-10 dtmpmx=   1.1081E-10

== TH FLOW =====================================================================
 Step    537 Time=  2.62500E+01 Dt=  5.00000E-02 [y] snes_conv_reason:   11
  newton =   1 [     538] linear =   130 [     71787] cuts =  0 [   0]
  --> max chng: dpmx=   5.8208E-10 dtmpmx=   9.9634E-11

== TH FLOW =====================================================================
 Step    538 Time=  2.63000E+01 Dt=  5.00000E-02 [y] snes_conv_reason:   11
  newton =   1 [     539] linear =   123 [     71910] cuts =  0 [   0]
  --> max chng: dpmx=   4.6566E-10 dtmpmx=   1.0807E-10

== TH FLOW =====================================================================
 Step    539 Time=  2.63500E+01 Dt=  5.00000E-02 [y] snes_conv_reason:   11
  newton =   1 [     540] linear =   137 [     72047] cuts =  0 [   0]
  --> max chng: dpmx=   4.6566E-10 dtmpmx=   1.0080E-10

== TH FLOW =====================================================================
 Step    540 Time=  2.64000E+01 Dt=  5.00000E-02 [y] snes_conv_reason:   11
  newton =   1 [     541] linear =   138 [     72185] cuts =  0 [   0]
  --> max chng: dpmx=   4.6566E-10 dtmpmx=   1.0705E-10

== TH FLOW =====================================================================
 Step    541 Time=  2.64500E+01 Dt=  5.00000E-02 [y] snes_conv_reason:   11
  newton =   1 [     542] linear =   137 [     72322] cuts =  0 [   0]
  --> max chng: dpmx=   3.4925E-10 dtmpmx=   1.1481E-10

== TH FLOW =====================================================================
 Step    542 Time=  2.65000E+01 Dt=  5.00000E-02 [y] snes_conv_reason:   11
  newton =   1 [     543] linear =   143 [     72465] cuts =  0 [   0]
  --> max chng: dpmx=   3.4925E-10 dtmpmx=   9.8996E-11

== TH FLOW =====================================================================
 Step    543 Time=  2.65500E+01 Dt=  5.00000E-02 [y] snes_conv_reason:   11
  newton =   1 [     544] linear =   131 [     72596] cuts =  0 [   0]
  --> max chng: dpmx=   3.4925E-10 dtmpmx=   1.0744E-10

== TH FLOW =====================================================================
 Step    544 Time=  2.66000E+01 Dt=  5.00000E-02 [y] snes_conv_reason:   11
  newton =   1 [     545] linear =   135 [     72731] cuts =  0 [   0]
  --> max chng: dpmx=   4.6566E-10 dtmpmx=   1.1386E-10

== TH FLOW =====================================================================
 Step    545 Time=  2.66500E+01 Dt=  5.00000E-02 [y] snes_conv_reason:   11
  newton =   1 [     546] linear =   129 [     72860] cuts =  0 [   0]
  --> max chng: dpmx=   5.8208E-10 dtmpmx=   1.0580E-10

== TH FLOW =====================================================================
 Step    546 Time=  2.67000E+01 Dt=  5.00000E-02 [y] snes_conv_reason:   11
  newton =   1 [     547] linear =   149 [     73009] cuts =  0 [   0]
  --> max chng: dpmx=   3.4925E-10 dtmpmx=   1.0506E-10

== TH FLOW =====================================================================
 Step    547 Time=  2.67500E+01 Dt=  5.00000E-02 [y] snes_conv_reason:   11
  newton =   1 [     548] linear =   132 [     73141] cuts =  0 [   0]
  --> max chng: dpmx=   4.6566E-10 dtmpmx=   1.1744E-10

== TH FLOW =====================================================================
 Step    548 Time=  2.68000E+01 Dt=  5.00000E-02 [y] snes_conv_reason:   11
  newton =   1 [     549] linear =   127 [     73268] cuts =  0 [   0]
  --> max chng: dpmx=   3.4925E-10 dtmpmx=   1.0649E-10

== TH FLOW =====================================================================
 Step    549 Time=  2.68500E+01 Dt=  5.00000E-02 [y] snes_conv_reason:   11
  newton =   1 [     550] linear =   135 [     73403] cuts =  0 [   0]
  --> max chng: dpmx=   4.6566E-10 dtmpmx=   9.9520E-11

== TH FLOW =====================================================================
 Step    550 Time=  2.69000E+01 Dt=  5.00000E-02 [y] snes_conv_reason:   11
  newton =   1 [     551] linear =   142 [     73545] cuts =  0 [   0]
  --> max chng: dpmx=   3.4925E-10 dtmpmx=   1.1203E-10

== TH FLOW =====================================================================
 Step    551 Time=  2.69500E+01 Dt=  5.00000E-02 [y] snes_conv_reason:   11
  newton =   1 [     552] linear =   132 [     73677] cuts =  0 [   0]
  --> max chng: dpmx=   4.6566E-10 dtmpmx=   1.0343E-10

== TH FLOW =====================================================================
 Step    552 Time=  2.70000E+01 Dt=  5.00000E-02 [y] snes_conv_reason:   11
  newton =   1 [     553] linear =   122 [     73799] cuts =  0 [   0]
  --> max chng: dpmx=   3.4925E-10 dtmpmx=   1.0137E-10

== TH FLOW =====================================================================
 Step    553 Time=  2.70500E+01 Dt=  5.00000E-02 [y] snes_conv_reason:   11
  newton =   1 [     554] linear =   102 [     73901] cuts =  0 [   0]
  --> max chng: dpmx=   4.6566E-10 dtmpmx=   1.0680E-10

== TH FLOW =====================================================================
 Step    554 Time=  2.71000E+01 Dt=  5.00000E-02 [y] snes_conv_reason:   11
  newton =   1 [     555] linear =   119 [     74020] cuts =  0 [   0]
  --> max chng: dpmx=   5.8208E-10 dtmpmx=   1.0679E-10

== TH FLOW =====================================================================
 Step    555 Time=  2.71500E+01 Dt=  5.00000E-02 [y] snes_conv_reason:   11
  newton =   1 [     556] linear =   136 [     74156] cuts =  0 [   0]
  --> max chng: dpmx=   3.4925E-10 dtmpmx=   1.0491E-10

== TH FLOW =====================================================================
 Step    556 Time=  2.72000E+01 Dt=  5.00000E-02 [y] snes_conv_reason:   11
  newton =   1 [     557] linear =   139 [     74295] cuts =  0 [   0]
  --> max chng: dpmx=   4.6566E-10 dtmpmx=   1.2908E-10

== TH FLOW =====================================================================
 Step    557 Time=  2.72500E+01 Dt=  5.00000E-02 [y] snes_conv_reason:   11
  newton =   1 [     558] linear =   127 [     74422] cuts =  0 [   0]
  --> max chng: dpmx=   3.4925E-10 dtmpmx=   1.0734E-10

== TH FLOW =====================================================================
 Step    558 Time=  2.73000E+01 Dt=  5.00000E-02 [y] snes_conv_reason:   11
  newton =   1 [     559] linear =   136 [     74558] cuts =  0 [   0]
  --> max chng: dpmx=   4.6566E-10 dtmpmx=   1.0097E-10

== TH FLOW =====================================================================
 Step    559 Time=  2.73500E+01 Dt=  5.00000E-02 [y] snes_conv_reason:   11
  newton =   1 [     560] linear =   129 [     74687] cuts =  0 [   0]
  --> max chng: dpmx=   4.6566E-10 dtmpmx=   1.0277E-10

== TH FLOW =====================================================================
 Step    560 Time=  2.74000E+01 Dt=  5.00000E-02 [y] snes_conv_reason:   11
  newton =   1 [     561] linear =   150 [     74837] cuts =  0 [   0]
  --> max chng: dpmx=   4.6566E-10 dtmpmx=   1.1095E-10

== TH FLOW =====================================================================
 Step    561 Time=  2.74500E+01 Dt=  5.00000E-02 [y] snes_conv_reason:   11
  newton =   1 [     562] linear =   138 [     74975] cuts =  0 [   0]
  --> max chng: dpmx=   3.4925E-10 dtmpmx=   1.0024E-10

== TH FLOW =====================================================================
 Step    562 Time=  2.75000E+01 Dt=  5.00000E-02 [y] snes_conv_reason:   11
  newton =   1 [     563] linear =   123 [     75098] cuts =  0 [   0]
  --> max chng: dpmx=   4.6566E-10 dtmpmx=   1.0463E-10

 Wall Clock Time:  1.1584E+02 [sec]   1.9307E+00 [min]   3.2179E-02 [hr]
