
===================
  PFLOTRAN v3.0.1
===================

 Extent of Gridded Domain
  X: 2.5000000000000000 - 97.500000000000000
  Y: 2.5000000000000000 - 1277.5000000000000
  Z: 2.5000000000000000 - 2.5000000000000000


=+=+=+=+=+=+=+=+=+=+=+=+=+=+=+=+=+=+=+=+=+=+=+=+=+=+=+=+=+=+=+=+=+=+=+=+=+=+=+=+

  Initial Condition

--------------------------------------------------------------------------------
          Flow Condition:   initial
                  Region:   all
--------------------------------------------------------------------------------

  Flow Condition: initial
    Synchronize time with update: no
    Time units: yr
    Length units: m
      Datum:
        Dataset: Unnamed Ascii Dataset
          Type: dataset_ascii_type
          Transient: no
          Array Rank:  3

    Sub Condition: pressure
      Type: hydrostatic
      Gradient:
        Dataset: Unnamed Ascii Dataset
          Type: dataset_ascii_type
          Transient: no
          Array Rank:  3
      Data:
        Dataset: Unnamed Ascii Dataset
          Type: dataset_ascii_type
          Transient: no
          Array Rank:  1

    Sub Condition: temperature
      Type: dirichlet
      Gradient:
      Data:
        Dataset: Unnamed Ascii Dataset
          Type: dataset_ascii_type
          Transient: no
          Array Rank:  1

--------------------------------------------------------------------------------

=+=+=+=+=+=+=+=+=+=+=+=+=+=+=+=+=+=+=+=+=+=+=+=+=+=+=+=+=+=+=+=+=+=+=+=+=+=+=+=+

  Boundary Condition

--------------------------------------------------------------------------------
          Flow Condition:   initial
                  Region:   north
--------------------------------------------------------------------------------

  Flow Condition: initial
    Synchronize time with update: no
    Time units: yr
    Length units: m
      Datum:
        Dataset: Unnamed Ascii Dataset
          Type: dataset_ascii_type
          Transient: no
          Array Rank:  3

    Sub Condition: pressure
      Type: hydrostatic
      Gradient:
        Dataset: Unnamed Ascii Dataset
          Type: dataset_ascii_type
          Transient: no
          Array Rank:  3
      Data:
        Dataset: Unnamed Ascii Dataset
          Type: dataset_ascii_type
          Transient: no
          Array Rank:  1

    Sub Condition: temperature
      Type: dirichlet
      Gradient:
      Data:
        Dataset: Unnamed Ascii Dataset
          Type: dataset_ascii_type
          Transient: no
          Array Rank:  1

--------------------------------------------------------------------------------

=+=+=+=+=+=+=+=+=+=+=+=+=+=+=+=+=+=+=+=+=+=+=+=+=+=+=+=+=+=+=+=+=+=+=+=+=+=+=+=+

  Boundary Condition

--------------------------------------------------------------------------------
          Flow Condition:   initial
                  Region:   south
--------------------------------------------------------------------------------

  Flow Condition: initial
    Synchronize time with update: no
    Time units: yr
    Length units: m
      Datum:
        Dataset: Unnamed Ascii Dataset
          Type: dataset_ascii_type
          Transient: no
          Array Rank:  3

    Sub Condition: pressure
      Type: hydrostatic
      Gradient:
        Dataset: Unnamed Ascii Dataset
          Type: dataset_ascii_type
          Transient: no
          Array Rank:  3
      Data:
        Dataset: Unnamed Ascii Dataset
          Type: dataset_ascii_type
          Transient: no
          Array Rank:  1

    Sub Condition: temperature
      Type: dirichlet
      Gradient:
      Data:
        Dataset: Unnamed Ascii Dataset
          Type: dataset_ascii_type
          Transient: no
          Array Rank:  1

--------------------------------------------------------------------------------

=+=+=+=+=+=+=+=+=+=+=+=+=+=+=+=+=+=+=+=+=+=+=+=+=+=+=+=+=+=+=+=+=+=+=+=+=+=+=+=+

  Source Sink

--------------------------------------------------------------------------------
          Flow Condition:   injection
                  Region:   heatpump_inject0
--------------------------------------------------------------------------------

  Flow Condition: injection
    Synchronize time with update: no
    Time units: yr
    Length units: m
      Datum:

    Sub Condition: rate
      Type: scaled volumetric rate
      Gradient:
      Data:
        Dataset: Unnamed Ascii Dataset
          Type: dataset_ascii_type
          Is transient?: yes
          Number of times:      3
          Is cyclic?: no
          Buffer:
            Rank:  2
            Dims:    1   3
            Buffer Slice Size:   0
          Array Rank:  1

    Sub Condition: temperature
      Type: dirichlet
      Gradient:
      Data:
        Dataset: Unnamed Ascii Dataset
          Type: dataset_ascii_type
          Transient: no
          Array Rank:  1

--------------------------------------------------------------------------------

 Requested processors =    32

FLOW Time Stepper
                 acceleration: on
       acceleration threshold: 5
       number of ramp entries: 5
                ramp entry #1: 2.0000
                ramp entry #2: 2.0000
                ramp entry #3: 2.0000
                ramp entry #4: 2.0000
                ramp entry #5: 2.0000
                ramp entry #6: 1.8000
                ramp entry #7: 1.6000
                ramp entry #8: 1.4000
                ramp entry #9: 1.2000
               ramp entry #10: 1.0000
               ramp entry #11: 1.0000
               ramp entry #12: 1.0000
               ramp entry #13: 1.0000
      maximum number of steps: 999999
constant time steps threshold: 5
       maximum number of cuts: 16
             reduction factor: 5.000000E-01
        maximum growth factor: 2.000000E+00

FLOW Newton Solver
                         atol: 1.000000E-50
                         rtol: 1.000000E-03
                         stol: 1.000000E-08
                         dtol: 1.000000E+04
                      maxnorm: 1.000000E+20
                    inftolres: -9.990000E+02
                    inftolupd: 1.000000E+00
                 inftolrelupd: -9.990000E+02
                 inftolsclres: -9.990000E+02
                     max iter: 50
                     min iter: 1
                         maxf: 10000
                  matrix type: baij
         precond. matrix type: baij
               inexact newton: off
            print convergence: on
   print detailed convergence: off
          check infinity norm: on

FLOW Linear Solver
                       solver: bcgs
               preconditioner: bjacobi
                         atol: 1.000000E-50
                         rtol: 1.000000E-05
                         dtol: 1.000000E+04
            maximum iteration: 10000

== TH FLOW =====================================================================
 Step      1 Time=  1.00000E-05 Dt=  1.00000E-05 [y] snes_conv_reason:   11
  newton =   1 [       1] linear =   106 [       106] cuts =  0 [   0]
  --> max chng: dpmx=   4.8863E-02 dtmpmx=   2.0214E-09

== TH FLOW =====================================================================
 Step      2 Time=  3.00000E-05 Dt=  2.00000E-05 [y] snes_conv_reason:   11
  newton =   1 [       2] linear =   107 [       213] cuts =  0 [   0]
  --> max chng: dpmx=   5.1426E-02 dtmpmx=   3.9848E-09

== TH FLOW =====================================================================
 Step      3 Time=  7.00000E-05 Dt=  4.00000E-05 [y] snes_conv_reason:   11
  newton =   1 [       3] linear =   112 [       325] cuts =  0 [   0]
  --> max chng: dpmx=   3.4350E-02 dtmpmx=   7.8839E-09

== TH FLOW =====================================================================
 Step      4 Time=  1.50000E-04 Dt=  8.00000E-05 [y] snes_conv_reason:   11
  newton =   1 [       4] linear =   124 [       449] cuts =  0 [   0]
  --> max chng: dpmx=   1.3577E-02 dtmpmx=   1.5699E-08

== TH FLOW =====================================================================
 Step      5 Time=  3.10000E-04 Dt=  1.60000E-04 [y] snes_conv_reason:   11
  newton =   1 [       5] linear =   126 [       575] cuts =  0 [   0]
  --> max chng: dpmx=   2.9703E-03 dtmpmx=   3.1367E-08

== TH FLOW =====================================================================
 Step      6 Time=  6.30000E-04 Dt=  3.20000E-04 [y] snes_conv_reason:   11
  newton =   1 [       6] linear =   109 [       684] cuts =  0 [   0]
  --> max chng: dpmx=   3.4350E-04 dtmpmx=   6.2729E-08

== TH FLOW =====================================================================
 Step      7 Time=  1.27000E-03 Dt=  6.40000E-04 [y] snes_conv_reason:   11
  newton =   1 [       7] linear =   122 [       806] cuts =  0 [   0]
  --> max chng: dpmx=   2.0185E-05 dtmpmx=   1.2546E-07

== TH FLOW =====================================================================
 Step      8 Time=  2.55000E-03 Dt=  1.28000E-03 [y] snes_conv_reason:   11
  newton =   1 [       8] linear =    97 [       903] cuts =  0 [   0]
  --> max chng: dpmx=   1.1144E-06 dtmpmx=   2.5092E-07

== TH FLOW =====================================================================
 Step      9 Time=  5.11000E-03 Dt=  2.56000E-03 [y] snes_conv_reason:   11
  newton =   1 [       9] linear =   127 [      1030] cuts =  0 [   0]
  --> max chng: dpmx=   2.2879E-06 dtmpmx=   5.0183E-07

== TH FLOW =====================================================================
 Step     10 Time=  1.02300E-02 Dt=  5.12000E-03 [y] snes_conv_reason:   11
  newton =   1 [      10] linear =   133 [      1163] cuts =  0 [   0]
  --> max chng: dpmx=   4.6968E-06 dtmpmx=   1.0037E-06

== TH FLOW =====================================================================
 Step     11 Time=  2.04700E-02 Dt=  1.02400E-02 [y] snes_conv_reason:   11
  newton =   1 [      11] linear =   121 [      1284] cuts =  0 [   0]
  --> max chng: dpmx=   9.8576E-06 dtmpmx=   2.0073E-06

== TH FLOW =====================================================================
 Step     12 Time=  4.09500E-02 Dt=  2.04800E-02 [y] snes_conv_reason:   11
  newton =   1 [      12] linear =   129 [      1413] cuts =  0 [   0]
  --> max chng: dpmx=   2.1622E-05 dtmpmx=   4.0147E-06

== TH FLOW =====================================================================
 Step     13 Time=  8.19100E-02 Dt=  4.09600E-02 [y] snes_conv_reason:   11
  newton =   1 [      13] linear =   130 [      1543] cuts =  0 [   0]
  --> max chng: dpmx=   5.0783E-05 dtmpmx=   8.0293E-06

== TH FLOW =====================================================================
 Step     14 Time=  1.00000E-01 Dt=  1.80900E-02 [y] snes_conv_reason:   11
  newton =   1 [      14] linear =   123 [      1666] cuts =  0 [   0]
  --> max chng: dpmx=   2.3899E-05 dtmpmx=   3.5462E-06

== TH FLOW =====================================================================
 Step     15 Time=  1.50000E-01 Dt=  5.00000E-02 [y] snes_conv_reason:   11
  newton =   1 [      15] linear =   126 [      1792] cuts =  0 [   0]
  --> max chng: dpmx=   7.7177E-05 dtmpmx=   9.8014E-06

== TH FLOW =====================================================================
 Step     16 Time=  2.00000E-01 Dt=  5.00000E-02 [y] snes_conv_reason:   11
  newton =   1 [      16] linear =   130 [      1922] cuts =  0 [   0]
  --> max chng: dpmx=   8.8162E-05 dtmpmx=   9.8014E-06

== TH FLOW =====================================================================
 Step     17 Time=  2.50000E-01 Dt=  5.00000E-02 [y] snes_conv_reason:    3
  newton =   3 [      19] linear =   394 [      2316] cuts =  0 [   0]
  --> max chng: dpmx=   2.2512E+03 dtmpmx=   3.5089E+00

== TH FLOW =====================================================================
 Step     18 Time=  3.00000E-01 Dt=  5.00000E-02 [y] snes_conv_reason:   11
  newton =   2 [      21] linear =   267 [      2583] cuts =  0 [   0]
  --> max chng: dpmx=   1.4196E+01 dtmpmx=   1.3208E+00

== TH FLOW =====================================================================
 Step     19 Time=  3.50000E-01 Dt=  5.00000E-02 [y] snes_conv_reason:   11
  newton =   2 [      23] linear =   270 [      2853] cuts =  0 [   0]
  --> max chng: dpmx=   7.1376E+00 dtmpmx=   8.5654E-01

== TH FLOW =====================================================================
 Step     20 Time=  4.00000E-01 Dt=  5.00000E-02 [y] snes_conv_reason:   11
  newton =   2 [      25] linear =   255 [      3108] cuts =  0 [   0]
  --> max chng: dpmx=   4.3715E+00 dtmpmx=   7.0273E-01

== TH FLOW =====================================================================
 Step     21 Time=  4.50000E-01 Dt=  5.00000E-02 [y] snes_conv_reason:   11
  newton =   2 [      27] linear =   253 [      3361] cuts =  0 [   0]
  --> max chng: dpmx=   3.5273E+00 dtmpmx=   5.6391E-01

== TH FLOW =====================================================================
 Step     22 Time=  5.00000E-01 Dt=  5.00000E-02 [y] snes_conv_reason:    3
  newton =   1 [      28] linear =   124 [      3485] cuts =  0 [   0]
  --> max chng: dpmx=   3.4273E+00 dtmpmx=   5.0305E-01

== TH FLOW =====================================================================
 Step     23 Time=  5.50000E-01 Dt=  5.00000E-02 [y] snes_conv_reason:    3
  newton =   1 [      29] linear =   139 [      3624] cuts =  0 [   0]
  --> max chng: dpmx=   3.2743E+00 dtmpmx=   4.4964E-01

== TH FLOW =====================================================================
 Step     24 Time=  6.00000E-01 Dt=  5.00000E-02 [y] snes_conv_reason:    3
  newton =   1 [      30] linear =   140 [      3764] cuts =  0 [   0]
  --> max chng: dpmx=   3.2097E+00 dtmpmx=   4.0412E-01

== TH FLOW =====================================================================
 Step     25 Time=  6.50000E-01 Dt=  5.00000E-02 [y] snes_conv_reason:    3
  newton =   1 [      31] linear =   131 [      3895] cuts =  0 [   0]
  --> max chng: dpmx=   3.1175E+00 dtmpmx=   3.7679E-01

== TH FLOW =====================================================================
 Step     26 Time=  7.00000E-01 Dt=  5.00000E-02 [y] snes_conv_reason:    3
  newton =   1 [      32] linear =   141 [      4036] cuts =  0 [   0]
  --> max chng: dpmx=   3.0749E+00 dtmpmx=   3.4789E-01

== TH FLOW =====================================================================
 Step     27 Time=  7.50000E-01 Dt=  5.00000E-02 [y] snes_conv_reason:    3
  newton =   1 [      33] linear =   138 [      4174] cuts =  0 [   0]
  --> max chng: dpmx=   3.0056E+00 dtmpmx=   3.2812E-01

== TH FLOW =====================================================================
 Step     28 Time=  8.00000E-01 Dt=  5.00000E-02 [y] snes_conv_reason:    3
  newton =   1 [      34] linear =   138 [      4312] cuts =  0 [   0]
  --> max chng: dpmx=   2.9761E+00 dtmpmx=   3.0993E-01

== TH FLOW =====================================================================
 Step     29 Time=  8.50000E-01 Dt=  5.00000E-02 [y] snes_conv_reason:    3
  newton =   1 [      35] linear =   135 [      4447] cuts =  0 [   0]
  --> max chng: dpmx=   2.9275E+00 dtmpmx=   2.9272E-01

== TH FLOW =====================================================================
 Step     30 Time=  9.00000E-01 Dt=  5.00000E-02 [y] snes_conv_reason:    3
  newton =   1 [      36] linear =   134 [      4581] cuts =  0 [   0]
  --> max chng: dpmx=   2.8955E+00 dtmpmx=   2.8029E-01

== TH FLOW =====================================================================
 Step     31 Time=  9.50000E-01 Dt=  5.00000E-02 [y] snes_conv_reason:    3
  newton =   1 [      37] linear =   139 [      4720] cuts =  0 [   0]
  --> max chng: dpmx=   2.8633E+00 dtmpmx=   2.6810E-01

== TH FLOW =====================================================================
 Step     32 Time=  1.00000E+00 Dt=  5.00000E-02 [y] snes_conv_reason:    3
  newton =   1 [      38] linear =   136 [      4856] cuts =  0 [   0]
  --> max chng: dpmx=   2.8297E+00 dtmpmx=   2.5706E-01

== TH FLOW =====================================================================
 Step     33 Time=  1.05000E+00 Dt=  5.00000E-02 [y] snes_conv_reason:    3
  newton =   1 [      39] linear =   137 [      4993] cuts =  0 [   0]
  --> max chng: dpmx=   2.8069E+00 dtmpmx=   2.4729E-01

== TH FLOW =====================================================================
 Step     34 Time=  1.10000E+00 Dt=  5.00000E-02 [y] snes_conv_reason:    3
  newton =   1 [      40] linear =   135 [      5128] cuts =  0 [   0]
  --> max chng: dpmx=   2.7721E+00 dtmpmx=   2.3905E-01

== TH FLOW =====================================================================
 Step     35 Time=  1.15000E+00 Dt=  5.00000E-02 [y] snes_conv_reason:    3
  newton =   1 [      41] linear =   131 [      5259] cuts =  0 [   0]
  --> max chng: dpmx=   2.7572E+00 dtmpmx=   2.3141E-01

== TH FLOW =====================================================================
 Step     36 Time=  1.20000E+00 Dt=  5.00000E-02 [y] snes_conv_reason:    3
  newton =   1 [      42] linear =   134 [      5393] cuts =  0 [   0]
  --> max chng: dpmx=   2.7316E+00 dtmpmx=   2.2289E-01

== TH FLOW =====================================================================
 Step     37 Time=  1.25000E+00 Dt=  5.00000E-02 [y] snes_conv_reason:    3
  newton =   1 [      43] linear =   138 [      5531] cuts =  0 [   0]
  --> max chng: dpmx=   2.7119E+00 dtmpmx=   2.1733E-01

== TH FLOW =====================================================================
 Step     38 Time=  1.30000E+00 Dt=  5.00000E-02 [y] snes_conv_reason:    3
  newton =   1 [      44] linear =   137 [      5668] cuts =  0 [   0]
  --> max chng: dpmx=   2.6941E+00 dtmpmx=   2.1165E-01

== TH FLOW =====================================================================
 Step     39 Time=  1.35000E+00 Dt=  5.00000E-02 [y] snes_conv_reason:    3
  newton =   1 [      45] linear =   137 [      5805] cuts =  0 [   0]
  --> max chng: dpmx=   2.6693E+00 dtmpmx=   2.0562E-01

== TH FLOW =====================================================================
 Step     40 Time=  1.40000E+00 Dt=  5.00000E-02 [y] snes_conv_reason:    3
  newton =   1 [      46] linear =   135 [      5940] cuts =  0 [   0]
  --> max chng: dpmx=   2.6568E+00 dtmpmx=   2.0022E-01

== TH FLOW =====================================================================
 Step     41 Time=  1.45000E+00 Dt=  5.00000E-02 [y] snes_conv_reason:    3
  newton =   1 [      47] linear =   138 [      6078] cuts =  0 [   0]
  --> max chng: dpmx=   2.6390E+00 dtmpmx=   1.9569E-01

== TH FLOW =====================================================================
 Step     42 Time=  1.50000E+00 Dt=  5.00000E-02 [y] snes_conv_reason:    3
  newton =   1 [      48] linear =   125 [      6203] cuts =  0 [   0]
  --> max chng: dpmx=   2.6229E+00 dtmpmx=   1.9175E-01

== TH FLOW =====================================================================
 Step     43 Time=  1.55000E+00 Dt=  5.00000E-02 [y] snes_conv_reason:    3
  newton =   1 [      49] linear =   133 [      6336] cuts =  0 [   0]
  --> max chng: dpmx=   2.6091E+00 dtmpmx=   1.8626E-01

== TH FLOW =====================================================================
 Step     44 Time=  1.60000E+00 Dt=  5.00000E-02 [y] snes_conv_reason:    3
  newton =   1 [      50] linear =   138 [      6474] cuts =  0 [   0]
  --> max chng: dpmx=   2.5890E+00 dtmpmx=   1.8237E-01

== TH FLOW =====================================================================
 Step     45 Time=  1.65000E+00 Dt=  5.00000E-02 [y] snes_conv_reason:    3
  newton =   1 [      51] linear =   137 [      6611] cuts =  0 [   0]
  --> max chng: dpmx=   2.5810E+00 dtmpmx=   1.7994E-01

== TH FLOW =====================================================================
 Step     46 Time=  1.70000E+00 Dt=  5.00000E-02 [y] snes_conv_reason:    3
  newton =   1 [      52] linear =   138 [      6749] cuts =  0 [   0]
  --> max chng: dpmx=   2.5658E+00 dtmpmx=   1.7614E-01

== TH FLOW =====================================================================
 Step     47 Time=  1.75000E+00 Dt=  5.00000E-02 [y] snes_conv_reason:    3
  newton =   1 [      53] linear =   139 [      6888] cuts =  0 [   0]
  --> max chng: dpmx=   2.5518E+00 dtmpmx=   1.7176E-01

== TH FLOW =====================================================================
 Step     48 Time=  1.80000E+00 Dt=  5.00000E-02 [y] snes_conv_reason:    3
  newton =   1 [      54] linear =   139 [      7027] cuts =  0 [   0]
  --> max chng: dpmx=   2.5412E+00 dtmpmx=   1.6967E-01

== TH FLOW =====================================================================
 Step     49 Time=  1.85000E+00 Dt=  5.00000E-02 [y] snes_conv_reason:    3
  newton =   1 [      55] linear =   140 [      7167] cuts =  0 [   0]
  --> max chng: dpmx=   2.5268E+00 dtmpmx=   1.6713E-01

== TH FLOW =====================================================================
 Step     50 Time=  1.90000E+00 Dt=  5.00000E-02 [y] snes_conv_reason:    3
  newton =   1 [      56] linear =   139 [      7306] cuts =  0 [   0]
  --> max chng: dpmx=   2.5173E+00 dtmpmx=   1.6351E-01

== TH FLOW =====================================================================
 Step     51 Time=  1.95000E+00 Dt=  5.00000E-02 [y] snes_conv_reason:    3
  newton =   1 [      57] linear =   138 [      7444] cuts =  0 [   0]
  --> max chng: dpmx=   2.5064E+00 dtmpmx=   1.6060E-01

== TH FLOW =====================================================================
 Step     52 Time=  2.00000E+00 Dt=  5.00000E-02 [y] snes_conv_reason:    3
  newton =   1 [      58] linear =   131 [      7575] cuts =  0 [   0]
  --> max chng: dpmx=   2.4918E+00 dtmpmx=   1.5903E-01

== TH FLOW =====================================================================
 Step     53 Time=  2.05000E+00 Dt=  5.00000E-02 [y] snes_conv_reason:    3
  newton =   1 [      59] linear =   138 [      7713] cuts =  0 [   0]
  --> max chng: dpmx=   2.4857E+00 dtmpmx=   1.5648E-01

== TH FLOW =====================================================================
 Step     54 Time=  2.10000E+00 Dt=  5.00000E-02 [y] snes_conv_reason:    3
  newton =   1 [      60] linear =   137 [      7850] cuts =  0 [   0]
  --> max chng: dpmx=   2.4737E+00 dtmpmx=   1.5304E-01

== TH FLOW =====================================================================
 Step     55 Time=  2.15000E+00 Dt=  5.00000E-02 [y] snes_conv_reason:    3
  newton =   1 [      61] linear =   139 [      7989] cuts =  0 [   0]
  --> max chng: dpmx=   2.4637E+00 dtmpmx=   1.5169E-01

== TH FLOW =====================================================================
 Step     56 Time=  2.20000E+00 Dt=  5.00000E-02 [y] snes_conv_reason:    3
  newton =   1 [      62] linear =   139 [      8128] cuts =  0 [   0]
  --> max chng: dpmx=   2.4554E+00 dtmpmx=   1.4998E-01

== TH FLOW =====================================================================
 Step     57 Time=  2.25000E+00 Dt=  5.00000E-02 [y] snes_conv_reason:    3
  newton =   1 [      63] linear =   139 [      8267] cuts =  0 [   0]
  --> max chng: dpmx=   2.4433E+00 dtmpmx=   1.4745E-01

== TH FLOW =====================================================================
 Step     58 Time=  2.30000E+00 Dt=  5.00000E-02 [y] snes_conv_reason:    3
  newton =   1 [      64] linear =   134 [      8401] cuts =  0 [   0]
  --> max chng: dpmx=   2.4362E+00 dtmpmx=   1.4497E-01

== TH FLOW =====================================================================
 Step     59 Time=  2.35000E+00 Dt=  5.00000E-02 [y] snes_conv_reason:    3
  newton =   1 [      65] linear =   131 [      8532] cuts =  0 [   0]
  --> max chng: dpmx=   2.4272E+00 dtmpmx=   1.4394E-01

== TH FLOW =====================================================================
 Step     60 Time=  2.40000E+00 Dt=  5.00000E-02 [y] snes_conv_reason:    3
  newton =   1 [      66] linear =   135 [      8667] cuts =  0 [   0]
  --> max chng: dpmx=   2.4173E+00 dtmpmx=   1.4215E-01

== TH FLOW =====================================================================
 Step     61 Time=  2.45000E+00 Dt=  5.00000E-02 [y] snes_conv_reason:    3
  newton =   1 [      67] linear =   140 [      8807] cuts =  0 [   0]
  --> max chng: dpmx=   2.4103E+00 dtmpmx=   1.3967E-01

== TH FLOW =====================================================================
 Step     62 Time=  2.50000E+00 Dt=  5.00000E-02 [y] snes_conv_reason:    3
  newton =   1 [      68] linear =   140 [      8947] cuts =  0 [   0]
  --> max chng: dpmx=   2.4013E+00 dtmpmx=   1.3831E-01

== TH FLOW =====================================================================
 Step     63 Time=  2.55000E+00 Dt=  5.00000E-02 [y] snes_conv_reason:    3
  newton =   1 [      69] linear =   140 [      9087] cuts =  0 [   0]
  --> max chng: dpmx=   2.3929E+00 dtmpmx=   1.3713E-01

== TH FLOW =====================================================================
 Step     64 Time=  2.60000E+00 Dt=  5.00000E-02 [y] snes_conv_reason:    3
  newton =   1 [      70] linear =   141 [      9228] cuts =  0 [   0]
  --> max chng: dpmx=   2.3860E+00 dtmpmx=   1.3530E-01

== TH FLOW =====================================================================
 Step     65 Time=  2.65000E+00 Dt=  5.00000E-02 [y] snes_conv_reason:    3
  newton =   1 [      71] linear =   141 [      9369] cuts =  0 [   0]
  --> max chng: dpmx=   2.3769E+00 dtmpmx=   1.3305E-01

== TH FLOW =====================================================================
 Step     66 Time=  2.70000E+00 Dt=  5.00000E-02 [y] snes_conv_reason:    3
  newton =   1 [      72] linear =   132 [      9501] cuts =  0 [   0]
  --> max chng: dpmx=   2.3699E+00 dtmpmx=   1.3236E-01

== TH FLOW =====================================================================
 Step     67 Time=  2.75000E+00 Dt=  5.00000E-02 [y] snes_conv_reason:    3
  newton =   1 [      73] linear =   138 [      9639] cuts =  0 [   0]
  --> max chng: dpmx=   2.3633E+00 dtmpmx=   1.3108E-01

== TH FLOW =====================================================================
 Step     68 Time=  2.80000E+00 Dt=  5.00000E-02 [y] snes_conv_reason:    3
  newton =   1 [      74] linear =   138 [      9777] cuts =  0 [   0]
  --> max chng: dpmx=   2.3537E+00 dtmpmx=   1.2923E-01

== TH FLOW =====================================================================
 Step     69 Time=  2.85000E+00 Dt=  5.00000E-02 [y] snes_conv_reason:    3
  newton =   1 [      75] linear =   134 [      9911] cuts =  0 [   0]
  --> max chng: dpmx=   2.3482E+00 dtmpmx=   1.2784E-01

== TH FLOW =====================================================================
 Step     70 Time=  2.90000E+00 Dt=  5.00000E-02 [y] snes_conv_reason:    3
  newton =   1 [      76] linear =   140 [     10051] cuts =  0 [   0]
  --> max chng: dpmx=   2.3410E+00 dtmpmx=   1.2701E-01

== TH FLOW =====================================================================
 Step     71 Time=  2.95000E+00 Dt=  5.00000E-02 [y] snes_conv_reason:    3
  newton =   1 [      77] linear =   135 [     10186] cuts =  0 [   0]
  --> max chng: dpmx=   2.3326E+00 dtmpmx=   1.2566E-01

== TH FLOW =====================================================================
 Step     72 Time=  3.00000E+00 Dt=  5.00000E-02 [y] snes_conv_reason:    3
  newton =   1 [      78] linear =   140 [     10326] cuts =  0 [   0]
  --> max chng: dpmx=   2.3278E+00 dtmpmx=   1.2380E-01

== TH FLOW =====================================================================
 Step     73 Time=  3.05000E+00 Dt=  5.00000E-02 [y] snes_conv_reason:    3
  newton =   1 [      79] linear =   127 [     10453] cuts =  0 [   0]
  --> max chng: dpmx=   2.3206E+00 dtmpmx=   1.2311E-01

== TH FLOW =====================================================================
 Step     74 Time=  3.10000E+00 Dt=  5.00000E-02 [y] snes_conv_reason:    3
  newton =   1 [      80] linear =   136 [     10589] cuts =  0 [   0]
  --> max chng: dpmx=   2.3131E+00 dtmpmx=   1.2217E-01

== TH FLOW =====================================================================
 Step     75 Time=  3.15000E+00 Dt=  5.00000E-02 [y] snes_conv_reason:    3
  newton =   1 [      81] linear =   136 [     10725] cuts =  0 [   0]
  --> max chng: dpmx=   2.3075E+00 dtmpmx=   1.2076E-01

== TH FLOW =====================================================================
 Step     76 Time=  3.20000E+00 Dt=  5.00000E-02 [y] snes_conv_reason:    3
  newton =   1 [      82] linear =   136 [     10861] cuts =  0 [   0]
  --> max chng: dpmx=   2.3002E+00 dtmpmx=   1.1936E-01

== TH FLOW =====================================================================
 Step     77 Time=  3.25000E+00 Dt=  5.00000E-02 [y] snes_conv_reason:    3
  newton =   1 [      83] linear =   137 [     10998] cuts =  0 [   0]
  --> max chng: dpmx=   2.2943E+00 dtmpmx=   1.1878E-01

== TH FLOW =====================================================================
 Step     78 Time=  3.30000E+00 Dt=  5.00000E-02 [y] snes_conv_reason:    3
  newton =   1 [      84] linear =   137 [     11135] cuts =  0 [   0]
  --> max chng: dpmx=   2.2885E+00 dtmpmx=   1.1775E-01

== TH FLOW =====================================================================
 Step     79 Time=  3.35000E+00 Dt=  5.00000E-02 [y] snes_conv_reason:    3
  newton =   1 [      85] linear =   123 [     11258] cuts =  0 [   0]
  --> max chng: dpmx=   2.2809E+00 dtmpmx=   1.1631E-01

== TH FLOW =====================================================================
 Step     80 Time=  3.40000E+00 Dt=  5.00000E-02 [y] snes_conv_reason:    3
  newton =   1 [      86] linear =   137 [     11395] cuts =  0 [   0]
  --> max chng: dpmx=   2.2762E+00 dtmpmx=   1.1549E-01

== TH FLOW =====================================================================
 Step     81 Time=  3.45000E+00 Dt=  5.00000E-02 [y] snes_conv_reason:    3
  newton =   1 [      87] linear =   134 [     11529] cuts =  0 [   0]
  --> max chng: dpmx=   2.2701E+00 dtmpmx=   1.1480E-01

== TH FLOW =====================================================================
 Step     82 Time=  3.50000E+00 Dt=  5.00000E-02 [y] snes_conv_reason:    3
  newton =   1 [      88] linear =   129 [     11658] cuts =  0 [   0]
  --> max chng: dpmx=   2.2624E+00 dtmpmx=   1.1370E-01

== TH FLOW =====================================================================
 Step     83 Time=  3.55000E+00 Dt=  5.00000E-02 [y] snes_conv_reason:    3
  newton =   1 [      89] linear =   132 [     11790] cuts =  0 [   0]
  --> max chng: dpmx=   2.2587E+00 dtmpmx=   1.1230E-01

== TH FLOW =====================================================================
 Step     84 Time=  3.60000E+00 Dt=  5.00000E-02 [y] snes_conv_reason:    3
  newton =   1 [      90] linear =   135 [     11925] cuts =  0 [   0]
  --> max chng: dpmx=   2.2522E+00 dtmpmx=   1.1190E-01

== TH FLOW =====================================================================
 Step     85 Time=  3.65000E+00 Dt=  5.00000E-02 [y] snes_conv_reason:    3
  newton =   1 [      91] linear =   135 [     12060] cuts =  0 [   0]
  --> max chng: dpmx=   2.2457E+00 dtmpmx=   1.1111E-01

== TH FLOW =====================================================================
 Step     86 Time=  3.70000E+00 Dt=  5.00000E-02 [y] snes_conv_reason:    3
  newton =   1 [      92] linear =   129 [     12189] cuts =  0 [   0]
  --> max chng: dpmx=   2.2408E+00 dtmpmx=   1.0997E-01

== TH FLOW =====================================================================
 Step     87 Time=  3.75000E+00 Dt=  5.00000E-02 [y] snes_conv_reason:    3
  newton =   1 [      93] linear =   131 [     12320] cuts =  0 [   0]
  --> max chng: dpmx=   2.2348E+00 dtmpmx=   1.0906E-01

== TH FLOW =====================================================================
 Step     88 Time=  3.80000E+00 Dt=  5.00000E-02 [y] snes_conv_reason:    3
  newton =   1 [      94] linear =   137 [     12457] cuts =  0 [   0]
  --> max chng: dpmx=   2.2298E+00 dtmpmx=   1.0855E-01

== TH FLOW =====================================================================
 Step     89 Time=  3.85000E+00 Dt=  5.00000E-02 [y] snes_conv_reason:    3
  newton =   1 [      95] linear =   137 [     12594] cuts =  0 [   0]
  --> max chng: dpmx=   2.2243E+00 dtmpmx=   1.0769E-01

== TH FLOW =====================================================================
 Step     90 Time=  3.90000E+00 Dt=  5.00000E-02 [y] snes_conv_reason:    3
  newton =   1 [      96] linear =   134 [     12728] cuts =  0 [   0]
  --> max chng: dpmx=   2.2180E+00 dtmpmx=   1.0651E-01

== TH FLOW =====================================================================
 Step     91 Time=  3.95000E+00 Dt=  5.00000E-02 [y] snes_conv_reason:    3
  newton =   1 [      97] linear =   135 [     12863] cuts =  0 [   0]
  --> max chng: dpmx=   2.2134E+00 dtmpmx=   1.0602E-01

== TH FLOW =====================================================================
 Step     92 Time=  4.00000E+00 Dt=  5.00000E-02 [y] snes_conv_reason:    3
  newton =   1 [      98] linear =   134 [     12997] cuts =  0 [   0]
  --> max chng: dpmx=   2.2081E+00 dtmpmx=   1.0542E-01

== TH FLOW =====================================================================
 Step     93 Time=  4.05000E+00 Dt=  5.00000E-02 [y] snes_conv_reason:    3
  newton =   1 [      99] linear =   129 [     13126] cuts =  0 [   0]
  --> max chng: dpmx=   2.2023E+00 dtmpmx=   1.0450E-01

== TH FLOW =====================================================================
 Step     94 Time=  4.10000E+00 Dt=  5.00000E-02 [y] snes_conv_reason:    3
  newton =   1 [     100] linear =   134 [     13260] cuts =  0 [   0]
  --> max chng: dpmx=   2.1973E+00 dtmpmx=   1.0354E-01

== TH FLOW =====================================================================
 Step     95 Time=  4.15000E+00 Dt=  5.00000E-02 [y] snes_conv_reason:    3
  newton =   1 [     101] linear =   135 [     13395] cuts =  0 [   0]
  --> max chng: dpmx=   2.1921E+00 dtmpmx=   1.0316E-01

== TH FLOW =====================================================================
 Step     96 Time=  4.20000E+00 Dt=  5.00000E-02 [y] snes_conv_reason:    3
  newton =   1 [     102] linear =   135 [     13530] cuts =  0 [   0]
  --> max chng: dpmx=   2.1864E+00 dtmpmx=   1.0248E-01

== TH FLOW =====================================================================
 Step     97 Time=  4.25000E+00 Dt=  5.00000E-02 [y] snes_conv_reason:    3
  newton =   1 [     103] linear =   131 [     13661] cuts =  0 [   0]
  --> max chng: dpmx=   2.1822E+00 dtmpmx=   1.0152E-01

== TH FLOW =====================================================================
 Step     98 Time=  4.30000E+00 Dt=  5.00000E-02 [y] snes_conv_reason:    3
  newton =   1 [     104] linear =   137 [     13798] cuts =  0 [   0]
  --> max chng: dpmx=   2.1768E+00 dtmpmx=   1.0093E-01

== TH FLOW =====================================================================
 Step     99 Time=  4.35000E+00 Dt=  5.00000E-02 [y] snes_conv_reason:    3
  newton =   1 [     105] linear =   136 [     13934] cuts =  0 [   0]
  --> max chng: dpmx=   2.1703E+00 dtmpmx=   1.0046E-01

== TH FLOW =====================================================================
 Step    100 Time=  4.40000E+00 Dt=  5.00000E-02 [y] snes_conv_reason:    3
  newton =   1 [     106] linear =   137 [     14071] cuts =  0 [   0]
  --> max chng: dpmx=   2.1673E+00 dtmpmx=   9.9722E-02

== TH FLOW =====================================================================
 Step    101 Time=  4.45000E+00 Dt=  5.00000E-02 [y] snes_conv_reason:    3
  newton =   1 [     107] linear =   128 [     14199] cuts =  0 [   0]
  --> max chng: dpmx=   2.1613E+00 dtmpmx=   9.8724E-02

== TH FLOW =====================================================================
 Step    102 Time=  4.50000E+00 Dt=  5.00000E-02 [y] snes_conv_reason:    3
  newton =   1 [     108] linear =   137 [     14336] cuts =  0 [   0]
  --> max chng: dpmx=   2.1566E+00 dtmpmx=   9.8451E-02

== TH FLOW =====================================================================
 Step    103 Time=  4.55000E+00 Dt=  5.00000E-02 [y] snes_conv_reason:    3
  newton =   1 [     109] linear =   138 [     14474] cuts =  0 [   0]
  --> max chng: dpmx=   2.1518E+00 dtmpmx=   9.7911E-02

== TH FLOW =====================================================================
 Step    104 Time=  4.60000E+00 Dt=  5.00000E-02 [y] snes_conv_reason:    3
  newton =   1 [     110] linear =   132 [     14606] cuts =  0 [   0]
  --> max chng: dpmx=   2.1469E+00 dtmpmx=   9.7117E-02

== TH FLOW =====================================================================
 Step    105 Time=  4.65000E+00 Dt=  5.00000E-02 [y] snes_conv_reason:    3
  newton =   1 [     111] linear =   132 [     14738] cuts =  0 [   0]
  --> max chng: dpmx=   2.1420E+00 dtmpmx=   9.6451E-02

== TH FLOW =====================================================================
 Step    106 Time=  4.70000E+00 Dt=  5.00000E-02 [y] snes_conv_reason:    3
  newton =   1 [     112] linear =   132 [     14870] cuts =  0 [   0]
  --> max chng: dpmx=   2.1374E+00 dtmpmx=   9.6094E-02

== TH FLOW =====================================================================
 Step    107 Time=  4.75000E+00 Dt=  5.00000E-02 [y] snes_conv_reason:    3
  newton =   1 [     113] linear =   136 [     15006] cuts =  0 [   0]
  --> max chng: dpmx=   2.1327E+00 dtmpmx=   9.5491E-02

== TH FLOW =====================================================================
 Step    108 Time=  4.80000E+00 Dt=  5.00000E-02 [y] snes_conv_reason:    3
  newton =   1 [     114] linear =   134 [     15140] cuts =  0 [   0]
  --> max chng: dpmx=   2.1275E+00 dtmpmx=   9.4652E-02

== TH FLOW =====================================================================
 Step    109 Time=  4.85000E+00 Dt=  5.00000E-02 [y] snes_conv_reason:    3
  newton =   1 [     115] linear =   132 [     15272] cuts =  0 [   0]
  --> max chng: dpmx=   2.1227E+00 dtmpmx=   9.4279E-02

== TH FLOW =====================================================================
 Step    110 Time=  4.90000E+00 Dt=  5.00000E-02 [y] snes_conv_reason:    3
  newton =   1 [     116] linear =   127 [     15399] cuts =  0 [   0]
  --> max chng: dpmx=   2.1190E+00 dtmpmx=   9.3850E-02

== TH FLOW =====================================================================
 Step    111 Time=  4.95000E+00 Dt=  5.00000E-02 [y] snes_conv_reason:    3
  newton =   1 [     117] linear =   137 [     15536] cuts =  0 [   0]
  --> max chng: dpmx=   2.1132E+00 dtmpmx=   9.3192E-02

== TH FLOW =====================================================================
 Step    112 Time=  5.00000E+00 Dt=  5.00000E-02 [y] snes_conv_reason:    3
  newton =   1 [     118] linear =   136 [     15672] cuts =  0 [   0]
  --> max chng: dpmx=   2.1092E+00 dtmpmx=   9.2470E-02

== TH FLOW =====================================================================
 Step    113 Time=  5.05000E+00 Dt=  5.00000E-02 [y] snes_conv_reason:    3
  newton =   1 [     119] linear =   138 [     15810] cuts =  0 [   0]
  --> max chng: dpmx=   2.1050E+00 dtmpmx=   9.2200E-02

== TH FLOW =====================================================================
 Step    114 Time=  5.10000E+00 Dt=  5.00000E-02 [y] snes_conv_reason:    3
  newton =   1 [     120] linear =   137 [     15947] cuts =  0 [   0]
  --> max chng: dpmx=   2.0998E+00 dtmpmx=   9.1708E-02

== TH FLOW =====================================================================
 Step    115 Time=  5.15000E+00 Dt=  5.00000E-02 [y] snes_conv_reason:    3
  newton =   1 [     121] linear =   137 [     16084] cuts =  0 [   0]
  --> max chng: dpmx=   2.0957E+00 dtmpmx=   9.1002E-02

== TH FLOW =====================================================================
 Step    116 Time=  5.20000E+00 Dt=  5.00000E-02 [y] snes_conv_reason:    3
  newton =   1 [     122] linear =   139 [     16223] cuts =  0 [   0]
  --> max chng: dpmx=   2.0906E+00 dtmpmx=   9.0548E-02

== TH FLOW =====================================================================
 Step    117 Time=  5.25000E+00 Dt=  5.00000E-02 [y] snes_conv_reason:    3
  newton =   1 [     123] linear =   132 [     16355] cuts =  0 [   0]
  --> max chng: dpmx=   2.0858E+00 dtmpmx=   9.0208E-02

== TH FLOW =====================================================================
 Step    118 Time=  5.30000E+00 Dt=  5.00000E-02 [y] snes_conv_reason:    3
  newton =   1 [     124] linear =   134 [     16489] cuts =  0 [   0]
  --> max chng: dpmx=   2.0829E+00 dtmpmx=   8.9660E-02

== TH FLOW =====================================================================
 Step    119 Time=  5.35000E+00 Dt=  5.00000E-02 [y] snes_conv_reason:    3
  newton =   1 [     125] linear =   134 [     16623] cuts =  0 [   0]
  --> max chng: dpmx=   2.0771E+00 dtmpmx=   8.8914E-02

== TH FLOW =====================================================================
 Step    120 Time=  5.40000E+00 Dt=  5.00000E-02 [y] snes_conv_reason:    3
  newton =   1 [     126] linear =   137 [     16760] cuts =  0 [   0]
  --> max chng: dpmx=   2.0729E+00 dtmpmx=   8.8698E-02

== TH FLOW =====================================================================
 Step    121 Time=  5.45000E+00 Dt=  5.00000E-02 [y] snes_conv_reason:    3
  newton =   1 [     127] linear =   132 [     16892] cuts =  0 [   0]
  --> max chng: dpmx=   2.0692E+00 dtmpmx=   8.8296E-02

== TH FLOW =====================================================================
 Step    122 Time=  5.50000E+00 Dt=  5.00000E-02 [y] snes_conv_reason:    3
  newton =   1 [     128] linear =   135 [     17027] cuts =  0 [   0]
  --> max chng: dpmx=   2.0636E+00 dtmpmx=   8.7701E-02

== TH FLOW =====================================================================
 Step    123 Time=  5.55000E+00 Dt=  5.00000E-02 [y] snes_conv_reason:    3
  newton =   1 [     129] linear =   136 [     17163] cuts =  0 [   0]
  --> max chng: dpmx=   2.0593E+00 dtmpmx=   8.7184E-02

== TH FLOW =====================================================================
 Step    124 Time=  5.60000E+00 Dt=  5.00000E-02 [y] snes_conv_reason:    3
  newton =   1 [     130] linear =   134 [     17297] cuts =  0 [   0]
  --> max chng: dpmx=   2.0564E+00 dtmpmx=   8.6916E-02

== TH FLOW =====================================================================
 Step    125 Time=  5.65000E+00 Dt=  5.00000E-02 [y] snes_conv_reason:    3
  newton =   1 [     131] linear =   124 [     17421] cuts =  0 [   0]
  --> max chng: dpmx=   2.0508E+00 dtmpmx=   8.6459E-02

== TH FLOW =====================================================================
 Step    126 Time=  5.70000E+00 Dt=  5.00000E-02 [y] snes_conv_reason:    3
  newton =   1 [     132] linear =   136 [     17557] cuts =  0 [   0]
  --> max chng: dpmx=   2.0466E+00 dtmpmx=   8.5822E-02

== TH FLOW =====================================================================
 Step    127 Time=  5.75000E+00 Dt=  5.00000E-02 [y] snes_conv_reason:    3
  newton =   1 [     133] linear =   130 [     17687] cuts =  0 [   0]
  --> max chng: dpmx=   2.0430E+00 dtmpmx=   8.5524E-02

== TH FLOW =====================================================================
 Step    128 Time=  5.80000E+00 Dt=  5.00000E-02 [y] snes_conv_reason:    3
  newton =   1 [     134] linear =   136 [     17823] cuts =  0 [   0]
  --> max chng: dpmx=   2.0373E+00 dtmpmx=   8.5197E-02

== TH FLOW =====================================================================
 Step    129 Time=  5.85000E+00 Dt=  5.00000E-02 [y] snes_conv_reason:    3
  newton =   1 [     135] linear =   128 [     17951] cuts =  0 [   0]
  --> max chng: dpmx=   2.0340E+00 dtmpmx=   8.4693E-02

== TH FLOW =====================================================================
 Step    130 Time=  5.90000E+00 Dt=  5.00000E-02 [y] snes_conv_reason:    3
  newton =   1 [     136] linear =   135 [     18086] cuts =  0 [   0]
  --> max chng: dpmx=   2.0298E+00 dtmpmx=   8.4128E-02

== TH FLOW =====================================================================
 Step    131 Time=  5.95000E+00 Dt=  5.00000E-02 [y] snes_conv_reason:    3
  newton =   1 [     137] linear =   134 [     18220] cuts =  0 [   0]
  --> max chng: dpmx=   2.0251E+00 dtmpmx=   8.3919E-02

== TH FLOW =====================================================================
 Step    132 Time=  6.00000E+00 Dt=  5.00000E-02 [y] snes_conv_reason:    3
  newton =   1 [     138] linear =   134 [     18354] cuts =  0 [   0]
  --> max chng: dpmx=   2.0220E+00 dtmpmx=   8.3538E-02

== TH FLOW =====================================================================
 Step    133 Time=  6.05000E+00 Dt=  5.00000E-02 [y] snes_conv_reason:    3
  newton =   1 [     139] linear =   134 [     18488] cuts =  0 [   0]
  --> max chng: dpmx=   2.0168E+00 dtmpmx=   8.2991E-02

== TH FLOW =====================================================================
 Step    134 Time=  6.10000E+00 Dt=  5.00000E-02 [y] snes_conv_reason:    3
  newton =   1 [     140] linear =   135 [     18623] cuts =  0 [   0]
  --> max chng: dpmx=   2.0127E+00 dtmpmx=   8.2630E-02

== TH FLOW =====================================================================
 Step    135 Time=  6.15000E+00 Dt=  5.00000E-02 [y] snes_conv_reason:    3
  newton =   1 [     141] linear =   135 [     18758] cuts =  0 [   0]
  --> max chng: dpmx=   2.0087E+00 dtmpmx=   8.2364E-02

== TH FLOW =====================================================================
 Step    136 Time=  6.20000E+00 Dt=  5.00000E-02 [y] snes_conv_reason:    3
  newton =   1 [     142] linear =   135 [     18893] cuts =  0 [   0]
  --> max chng: dpmx=   2.0045E+00 dtmpmx=   8.1936E-02

== TH FLOW =====================================================================
 Step    137 Time=  6.25000E+00 Dt=  5.00000E-02 [y] snes_conv_reason:    3
  newton =   1 [     143] linear =   130 [     19023] cuts =  0 [   0]
  --> max chng: dpmx=   2.0001E+00 dtmpmx=   8.1351E-02

== TH FLOW =====================================================================
 Step    138 Time=  6.30000E+00 Dt=  5.00000E-02 [y] snes_conv_reason:    3
  newton =   1 [     144] linear =   133 [     19156] cuts =  0 [   0]
  --> max chng: dpmx=   1.9962E+00 dtmpmx=   8.1175E-02

== TH FLOW =====================================================================
 Step    139 Time=  6.35000E+00 Dt=  5.00000E-02 [y] snes_conv_reason:    3
  newton =   1 [     145] linear =   130 [     19286] cuts =  0 [   0]
  --> max chng: dpmx=   1.9925E+00 dtmpmx=   8.0857E-02

== TH FLOW =====================================================================
 Step    140 Time=  6.40000E+00 Dt=  5.00000E-02 [y] snes_conv_reason:    3
  newton =   1 [     146] linear =   131 [     19417] cuts =  0 [   0]
  --> max chng: dpmx=   1.9874E+00 dtmpmx=   8.0387E-02

== TH FLOW =====================================================================
 Step    141 Time=  6.45000E+00 Dt=  5.00000E-02 [y] snes_conv_reason:    3
  newton =   1 [     147] linear =   132 [     19549] cuts =  0 [   0]
  --> max chng: dpmx=   1.9835E+00 dtmpmx=   7.9974E-02

== TH FLOW =====================================================================
 Step    142 Time=  6.50000E+00 Dt=  5.00000E-02 [y] snes_conv_reason:    3
  newton =   1 [     148] linear =   133 [     19682] cuts =  0 [   0]
  --> max chng: dpmx=   1.9804E+00 dtmpmx=   7.9760E-02

== TH FLOW =====================================================================
 Step    143 Time=  6.55000E+00 Dt=  5.00000E-02 [y] snes_conv_reason:    3
  newton =   1 [     149] linear =   133 [     19815] cuts =  0 [   0]
  --> max chng: dpmx=   1.9752E+00 dtmpmx=   7.9396E-02

== TH FLOW =====================================================================
 Step    144 Time=  6.60000E+00 Dt=  5.00000E-02 [y] snes_conv_reason:    3
  newton =   1 [     150] linear =   137 [     19952] cuts =  0 [   0]
  --> max chng: dpmx=   1.9715E+00 dtmpmx=   7.8887E-02

== TH FLOW =====================================================================
 Step    145 Time=  6.65000E+00 Dt=  5.00000E-02 [y] snes_conv_reason:    3
  newton =   1 [     151] linear =   136 [     20088] cuts =  0 [   0]
  --> max chng: dpmx=   1.9682E+00 dtmpmx=   7.8648E-02

== TH FLOW =====================================================================
 Step    146 Time=  6.70000E+00 Dt=  5.00000E-02 [y] snes_conv_reason:    3
  newton =   1 [     152] linear =   138 [     20226] cuts =  0 [   0]
  --> max chng: dpmx=   1.9630E+00 dtmpmx=   7.8384E-02

== TH FLOW =====================================================================
 Step    147 Time=  6.75000E+00 Dt=  5.00000E-02 [y] snes_conv_reason:    3
  newton =   1 [     153] linear =   133 [     20359] cuts =  0 [   0]
  --> max chng: dpmx=   1.9598E+00 dtmpmx=   7.7979E-02

== TH FLOW =====================================================================
 Step    148 Time=  6.80000E+00 Dt=  5.00000E-02 [y] snes_conv_reason:    3
  newton =   1 [     154] linear =   130 [     20489] cuts =  0 [   0]
  --> max chng: dpmx=   1.9558E+00 dtmpmx=   7.7526E-02

== TH FLOW =====================================================================
 Step    149 Time=  6.85000E+00 Dt=  5.00000E-02 [y] snes_conv_reason:    3
  newton =   1 [     155] linear =   136 [     20625] cuts =  0 [   0]
  --> max chng: dpmx=   1.9514E+00 dtmpmx=   7.7355E-02

== TH FLOW =====================================================================
 Step    150 Time=  6.90000E+00 Dt=  5.00000E-02 [y] snes_conv_reason:    3
  newton =   1 [     156] linear =   138 [     20763] cuts =  0 [   0]
  --> max chng: dpmx=   1.9475E+00 dtmpmx=   7.7046E-02

== TH FLOW =====================================================================
 Step    151 Time=  6.95000E+00 Dt=  5.00000E-02 [y] snes_conv_reason:    3
  newton =   1 [     157] linear =   133 [     20896] cuts =  0 [   0]
  --> max chng: dpmx=   1.9437E+00 dtmpmx=   7.6602E-02

== TH FLOW =====================================================================
 Step    152 Time=  7.00000E+00 Dt=  5.00000E-02 [y] snes_conv_reason:    3
  newton =   1 [     158] linear =   133 [     21029] cuts =  0 [   0]
  --> max chng: dpmx=   1.9394E+00 dtmpmx=   7.6312E-02

== TH FLOW =====================================================================
 Step    153 Time=  7.05000E+00 Dt=  5.00000E-02 [y] snes_conv_reason:    3
  newton =   1 [     159] linear =   134 [     21163] cuts =  0 [   0]
  --> max chng: dpmx=   1.9356E+00 dtmpmx=   7.6093E-02

== TH FLOW =====================================================================
 Step    154 Time=  7.10000E+00 Dt=  5.00000E-02 [y] snes_conv_reason:    3
  newton =   1 [     160] linear =   139 [     21302] cuts =  0 [   0]
  --> max chng: dpmx=   1.9318E+00 dtmpmx=   7.5743E-02

== TH FLOW =====================================================================
 Step    155 Time=  7.15000E+00 Dt=  5.00000E-02 [y] snes_conv_reason:    3
  newton =   1 [     161] linear =   139 [     21441] cuts =  0 [   0]
  --> max chng: dpmx=   1.9274E+00 dtmpmx=   7.5265E-02

== TH FLOW =====================================================================
 Step    156 Time=  7.20000E+00 Dt=  5.00000E-02 [y] snes_conv_reason:    3
  newton =   1 [     162] linear =   135 [     21576] cuts =  0 [   0]
  --> max chng: dpmx=   1.9237E+00 dtmpmx=   7.5124E-02

== TH FLOW =====================================================================
 Step    157 Time=  7.25000E+00 Dt=  5.00000E-02 [y] snes_conv_reason:    3
  newton =   1 [     163] linear =   135 [     21711] cuts =  0 [   0]
  --> max chng: dpmx=   1.9207E+00 dtmpmx=   7.4862E-02

== TH FLOW =====================================================================
 Step    158 Time=  7.30000E+00 Dt=  5.00000E-02 [y] snes_conv_reason:    3
  newton =   1 [     164] linear =   125 [     21836] cuts =  0 [   0]
  --> max chng: dpmx=   1.9156E+00 dtmpmx=   7.4475E-02

== TH FLOW =====================================================================
 Step    159 Time=  7.35000E+00 Dt=  5.00000E-02 [y] snes_conv_reason:    3
  newton =   1 [     165] linear =   133 [     21969] cuts =  0 [   0]
  --> max chng: dpmx=   1.9123E+00 dtmpmx=   7.4141E-02

== TH FLOW =====================================================================
 Step    160 Time=  7.40000E+00 Dt=  5.00000E-02 [y] snes_conv_reason:    3
  newton =   1 [     166] linear =   133 [     22102] cuts =  0 [   0]
  --> max chng: dpmx=   1.9086E+00 dtmpmx=   7.3962E-02

== TH FLOW =====================================================================
 Step    161 Time=  7.45000E+00 Dt=  5.00000E-02 [y] snes_conv_reason:    3
  newton =   1 [     167] linear =   134 [     22236] cuts =  0 [   0]
  --> max chng: dpmx=   1.9039E+00 dtmpmx=   7.3660E-02

== TH FLOW =====================================================================
 Step    162 Time=  7.50000E+00 Dt=  5.00000E-02 [y] snes_conv_reason:    3
  newton =   1 [     168] linear =   134 [     22370] cuts =  0 [   0]
  --> max chng: dpmx=   1.9004E+00 dtmpmx=   7.3239E-02

== TH FLOW =====================================================================
 Step    163 Time=  7.55000E+00 Dt=  5.00000E-02 [y] snes_conv_reason:    3
  newton =   1 [     169] linear =   134 [     22504] cuts =  0 [   0]
  --> max chng: dpmx=   1.8967E+00 dtmpmx=   7.3046E-02

== TH FLOW =====================================================================
 Step    164 Time=  7.60000E+00 Dt=  5.00000E-02 [y] snes_conv_reason:    3
  newton =   1 [     170] linear =   134 [     22638] cuts =  0 [   0]
  --> max chng: dpmx=   1.8923E+00 dtmpmx=   7.2825E-02

== TH FLOW =====================================================================
 Step    165 Time=  7.65000E+00 Dt=  5.00000E-02 [y] snes_conv_reason:    3
  newton =   1 [     171] linear =   130 [     22768] cuts =  0 [   0]
  --> max chng: dpmx=   1.8887E+00 dtmpmx=   7.2486E-02

== TH FLOW =====================================================================
 Step    166 Time=  7.70000E+00 Dt=  5.00000E-02 [y] snes_conv_reason:    3
  newton =   1 [     172] linear =   135 [     22903] cuts =  0 [   0]
  --> max chng: dpmx=   1.8853E+00 dtmpmx=   7.2118E-02

== TH FLOW =====================================================================
 Step    167 Time=  7.75000E+00 Dt=  5.00000E-02 [y] snes_conv_reason:    3
  newton =   1 [     173] linear =   136 [     23039] cuts =  0 [   0]
  --> max chng: dpmx=   1.8811E+00 dtmpmx=   7.1972E-02

== TH FLOW =====================================================================
 Step    168 Time=  7.80000E+00 Dt=  5.00000E-02 [y] snes_conv_reason:    3
  newton =   1 [     174] linear =   131 [     23170] cuts =  0 [   0]
  --> max chng: dpmx=   1.8775E+00 dtmpmx=   7.1712E-02

== TH FLOW =====================================================================
 Step    169 Time=  7.85000E+00 Dt=  5.00000E-02 [y] snes_conv_reason:    3
  newton =   1 [     175] linear =   136 [     23306] cuts =  0 [   0]
  --> max chng: dpmx=   1.8738E+00 dtmpmx=   7.1340E-02

== TH FLOW =====================================================================
 Step    170 Time=  7.90000E+00 Dt=  5.00000E-02 [y] snes_conv_reason:    3
  newton =   1 [     176] linear =   136 [     23442] cuts =  0 [   0]
  --> max chng: dpmx=   1.8696E+00 dtmpmx=   7.1105E-02

== TH FLOW =====================================================================
 Step    171 Time=  7.95000E+00 Dt=  5.00000E-02 [y] snes_conv_reason:    3
  newton =   1 [     177] linear =   136 [     23578] cuts =  0 [   0]
  --> max chng: dpmx=   1.8660E+00 dtmpmx=   7.0918E-02

== TH FLOW =====================================================================
 Step    172 Time=  8.00000E+00 Dt=  5.00000E-02 [y] snes_conv_reason:    3
  newton =   1 [     178] linear =   131 [     23709] cuts =  0 [   0]
  --> max chng: dpmx=   1.8619E+00 dtmpmx=   7.0623E-02

== TH FLOW =====================================================================
 Step    173 Time=  8.05000E+00 Dt=  5.00000E-02 [y] snes_conv_reason:    3
  newton =   1 [     179] linear =   133 [     23842] cuts =  0 [   0]
  --> max chng: dpmx=   1.8585E+00 dtmpmx=   7.0225E-02

== TH FLOW =====================================================================
 Step    174 Time=  8.10000E+00 Dt=  5.00000E-02 [y] snes_conv_reason:    3
  newton =   1 [     180] linear =   133 [     23975] cuts =  0 [   0]
  --> max chng: dpmx=   1.8544E+00 dtmpmx=   7.0109E-02

== TH FLOW =====================================================================
 Step    175 Time=  8.15000E+00 Dt=  5.00000E-02 [y] snes_conv_reason:    3
  newton =   1 [     181] linear =   133 [     24108] cuts =  0 [   0]
  --> max chng: dpmx=   1.8511E+00 dtmpmx=   6.9885E-02

== TH FLOW =====================================================================
 Step    176 Time=  8.20000E+00 Dt=  5.00000E-02 [y] snes_conv_reason:    3
  newton =   1 [     182] linear =   135 [     24243] cuts =  0 [   0]
  --> max chng: dpmx=   1.8465E+00 dtmpmx=   6.9556E-02

== TH FLOW =====================================================================
 Step    177 Time=  8.25000E+00 Dt=  5.00000E-02 [y] snes_conv_reason:    3
  newton =   1 [     183] linear =   134 [     24377] cuts =  0 [   0]
  --> max chng: dpmx=   1.8434E+00 dtmpmx=   6.9285E-02

== TH FLOW =====================================================================
 Step    178 Time=  8.30000E+00 Dt=  5.00000E-02 [y] snes_conv_reason:    3
  newton =   1 [     184] linear =   133 [     24510] cuts =  0 [   0]
  --> max chng: dpmx=   1.8394E+00 dtmpmx=   6.9129E-02

== TH FLOW =====================================================================
 Step    179 Time=  8.35000E+00 Dt=  5.00000E-02 [y] snes_conv_reason:    3
  newton =   1 [     185] linear =   133 [     24643] cuts =  0 [   0]
  --> max chng: dpmx=   1.8355E+00 dtmpmx=   6.8870E-02

== TH FLOW =====================================================================
 Step    180 Time=  8.40000E+00 Dt=  5.00000E-02 [y] snes_conv_reason:    3
  newton =   1 [     186] linear =   134 [     24777] cuts =  0 [   0]
  --> max chng: dpmx=   1.8319E+00 dtmpmx=   6.8512E-02

== TH FLOW =====================================================================
 Step    181 Time=  8.45000E+00 Dt=  5.00000E-02 [y] snes_conv_reason:    3
  newton =   1 [     187] linear =   132 [     24909] cuts =  0 [   0]
  --> max chng: dpmx=   1.8283E+00 dtmpmx=   6.8358E-02

== TH FLOW =====================================================================
 Step    182 Time=  8.50000E+00 Dt=  5.00000E-02 [y] snes_conv_reason:    3
  newton =   1 [     188] linear =   132 [     25041] cuts =  0 [   0]
  --> max chng: dpmx=   1.8246E+00 dtmpmx=   6.8166E-02

== TH FLOW =====================================================================
 Step    183 Time=  8.55000E+00 Dt=  5.00000E-02 [y] snes_conv_reason:    3
  newton =   1 [     189] linear =   126 [     25167] cuts =  0 [   0]
  --> max chng: dpmx=   1.8205E+00 dtmpmx=   6.7875E-02

== TH FLOW =====================================================================
 Step    184 Time=  8.60000E+00 Dt=  5.00000E-02 [y] snes_conv_reason:    3
  newton =   1 [     190] linear =   130 [     25297] cuts =  0 [   0]
  --> max chng: dpmx=   1.8174E+00 dtmpmx=   6.7574E-02

== TH FLOW =====================================================================
 Step    185 Time=  8.65000E+00 Dt=  5.00000E-02 [y] snes_conv_reason:    3
  newton =   1 [     191] linear =   135 [     25432] cuts =  0 [   0]
  --> max chng: dpmx=   1.8130E+00 dtmpmx=   6.7445E-02

== TH FLOW =====================================================================
 Step    186 Time=  8.70000E+00 Dt=  5.00000E-02 [y] snes_conv_reason:    3
  newton =   1 [     192] linear =   133 [     25565] cuts =  0 [   0]
  --> max chng: dpmx=   1.8095E+00 dtmpmx=   6.7219E-02

== TH FLOW =====================================================================
 Step    187 Time=  8.75000E+00 Dt=  5.00000E-02 [y] snes_conv_reason:    3
  newton =   1 [     193] linear =   128 [     25693] cuts =  0 [   0]
  --> max chng: dpmx=   1.8061E+00 dtmpmx=   6.6899E-02

== TH FLOW =====================================================================
 Step    188 Time=  8.80000E+00 Dt=  5.00000E-02 [y] snes_conv_reason:    3
  newton =   1 [     194] linear =   129 [     25822] cuts =  0 [   0]
  --> max chng: dpmx=   1.8019E+00 dtmpmx=   6.6709E-02

== TH FLOW =====================================================================
 Step    189 Time=  8.85000E+00 Dt=  5.00000E-02 [y] snes_conv_reason:    3
  newton =   1 [     195] linear =   136 [     25958] cuts =  0 [   0]
  --> max chng: dpmx=   1.7985E+00 dtmpmx=   6.6545E-02

== TH FLOW =====================================================================
 Step    190 Time=  8.90000E+00 Dt=  5.00000E-02 [y] snes_conv_reason:    3
  newton =   1 [     196] linear =   134 [     26092] cuts =  0 [   0]
  --> max chng: dpmx=   1.7950E+00 dtmpmx=   6.6288E-02

== TH FLOW =====================================================================
 Step    191 Time=  8.95000E+00 Dt=  5.00000E-02 [y] snes_conv_reason:    3
  newton =   1 [     197] linear =   134 [     26226] cuts =  0 [   0]
  --> max chng: dpmx=   1.7909E+00 dtmpmx=   6.5961E-02

== TH FLOW =====================================================================
 Step    192 Time=  9.00000E+00 Dt=  5.00000E-02 [y] snes_conv_reason:    3
  newton =   1 [     198] linear =   135 [     26361] cuts =  0 [   0]
  --> max chng: dpmx=   1.7872E+00 dtmpmx=   6.5856E-02

== TH FLOW =====================================================================
 Step    193 Time=  9.05000E+00 Dt=  5.00000E-02 [y] snes_conv_reason:    3
  newton =   1 [     199] linear =   131 [     26492] cuts =  0 [   0]
  --> max chng: dpmx=   1.7837E+00 dtmpmx=   6.5659E-02

== TH FLOW =====================================================================
 Step    194 Time=  9.10000E+00 Dt=  5.00000E-02 [y] snes_conv_reason:    3
  newton =   1 [     200] linear =   134 [     26626] cuts =  0 [   0]
  --> max chng: dpmx=   1.7799E+00 dtmpmx=   6.5373E-02

== TH FLOW =====================================================================
 Step    195 Time=  9.15000E+00 Dt=  5.00000E-02 [y] snes_conv_reason:    3
  newton =   1 [     201] linear =   130 [     26756] cuts =  0 [   0]
  --> max chng: dpmx=   1.7762E+00 dtmpmx=   6.5153E-02

== TH FLOW =====================================================================
 Step    196 Time=  9.20000E+00 Dt=  5.00000E-02 [y] snes_conv_reason:    3
  newton =   1 [     202] linear =   127 [     26883] cuts =  0 [   0]
  --> max chng: dpmx=   1.7725E+00 dtmpmx=   6.5014E-02

== TH FLOW =====================================================================
 Step    197 Time=  9.25000E+00 Dt=  5.00000E-02 [y] snes_conv_reason:    3
  newton =   1 [     203] linear =   134 [     27017] cuts =  0 [   0]
  --> max chng: dpmx=   1.7695E+00 dtmpmx=   6.4786E-02

== TH FLOW =====================================================================
 Step    198 Time=  9.30000E+00 Dt=  5.00000E-02 [y] snes_conv_reason:    3
  newton =   1 [     204] linear =   135 [     27152] cuts =  0 [   0]
  --> max chng: dpmx=   1.7648E+00 dtmpmx=   6.4474E-02

== TH FLOW =====================================================================
 Step    199 Time=  9.35000E+00 Dt=  5.00000E-02 [y] snes_conv_reason:    3
  newton =   1 [     205] linear =   134 [     27286] cuts =  0 [   0]
  --> max chng: dpmx=   1.7616E+00 dtmpmx=   6.4353E-02

== TH FLOW =====================================================================
 Step    200 Time=  9.40000E+00 Dt=  5.00000E-02 [y] snes_conv_reason:    3
  newton =   1 [     206] linear =   132 [     27418] cuts =  0 [   0]
  --> max chng: dpmx=   1.7582E+00 dtmpmx=   6.4182E-02

== TH FLOW =====================================================================
 Step    201 Time=  9.45000E+00 Dt=  5.00000E-02 [y] snes_conv_reason:    3
  newton =   1 [     207] linear =   136 [     27554] cuts =  0 [   0]
  --> max chng: dpmx=   1.7539E+00 dtmpmx=   6.3927E-02

== TH FLOW =====================================================================
 Step    202 Time=  9.50000E+00 Dt=  5.00000E-02 [y] snes_conv_reason:    3
  newton =   1 [     208] linear =   136 [     27690] cuts =  0 [   0]
  --> max chng: dpmx=   1.7508E+00 dtmpmx=   6.3680E-02

== TH FLOW =====================================================================
 Step    203 Time=  9.55000E+00 Dt=  5.00000E-02 [y] snes_conv_reason:    3
  newton =   1 [     209] linear =   137 [     27827] cuts =  0 [   0]
  --> max chng: dpmx=   1.7471E+00 dtmpmx=   6.3563E-02

== TH FLOW =====================================================================
 Step    204 Time=  9.60000E+00 Dt=  5.00000E-02 [y] snes_conv_reason:    3
  newton =   1 [     210] linear =   137 [     27964] cuts =  0 [   0]
  --> max chng: dpmx=   1.7435E+00 dtmpmx=   6.3362E-02

== TH FLOW =====================================================================
 Step    205 Time=  9.65000E+00 Dt=  5.00000E-02 [y] snes_conv_reason:    3
  newton =   1 [     211] linear =   129 [     28093] cuts =  0 [   0]
  --> max chng: dpmx=   1.7399E+00 dtmpmx=   6.3080E-02

== TH FLOW =====================================================================
 Step    206 Time=  9.70000E+00 Dt=  5.00000E-02 [y] snes_conv_reason:    3
  newton =   1 [     212] linear =   134 [     28227] cuts =  0 [   0]
  --> max chng: dpmx=   1.7364E+00 dtmpmx=   6.2929E-02

== TH FLOW =====================================================================
 Step    207 Time=  9.75000E+00 Dt=  5.00000E-02 [y] snes_conv_reason:    3
  newton =   1 [     213] linear =   131 [     28358] cuts =  0 [   0]
  --> max chng: dpmx=   1.7324E+00 dtmpmx=   6.2781E-02

== TH FLOW =====================================================================
 Step    208 Time=  9.80000E+00 Dt=  5.00000E-02 [y] snes_conv_reason:    3
  newton =   1 [     214] linear =   134 [     28492] cuts =  0 [   0]
  --> max chng: dpmx=   1.7287E+00 dtmpmx=   6.2553E-02

== TH FLOW =====================================================================
 Step    209 Time=  9.85000E+00 Dt=  5.00000E-02 [y] snes_conv_reason:    3
  newton =   1 [     215] linear =   136 [     28628] cuts =  0 [   0]
  --> max chng: dpmx=   1.7258E+00 dtmpmx=   6.2283E-02

== TH FLOW =====================================================================
 Step    210 Time=  9.90000E+00 Dt=  5.00000E-02 [y] snes_conv_reason:    3
  newton =   1 [     216] linear =   134 [     28762] cuts =  0 [   0]
  --> max chng: dpmx=   1.7214E+00 dtmpmx=   6.2186E-02

== TH FLOW =====================================================================
 Step    211 Time=  9.95000E+00 Dt=  5.00000E-02 [y] snes_conv_reason:    3
  newton =   1 [     217] linear =   134 [     28896] cuts =  0 [   0]
  --> max chng: dpmx=   1.7181E+00 dtmpmx=   6.2009E-02

== TH FLOW =====================================================================
 Step    212 Time=  1.00000E+01 Dt=  5.00000E-02 [y] snes_conv_reason:    3
  newton =   1 [     218] linear =   133 [     29029] cuts =  0 [   0]
  --> max chng: dpmx=   1.7144E+00 dtmpmx=   6.1755E-02

== TH FLOW =====================================================================
 Step    213 Time=  1.00500E+01 Dt=  5.00000E-02 [y] snes_conv_reason:    3
  newton =   1 [     219] linear =   137 [     29166] cuts =  0 [   0]
  --> max chng: dpmx=   1.7106E+00 dtmpmx=   6.1577E-02

== TH FLOW =====================================================================
 Step    214 Time=  1.01000E+01 Dt=  5.00000E-02 [y] snes_conv_reason:    3
  newton =   1 [     220] linear =   130 [     29296] cuts =  0 [   0]
  --> max chng: dpmx=   1.7074E+00 dtmpmx=   6.1449E-02

== TH FLOW =====================================================================
 Step    215 Time=  1.01500E+01 Dt=  5.00000E-02 [y] snes_conv_reason:    3
  newton =   1 [     221] linear =   137 [     29433] cuts =  0 [   0]
  --> max chng: dpmx=   1.7043E+00 dtmpmx=   6.1246E-02

== TH FLOW =====================================================================
 Step    216 Time=  1.02000E+01 Dt=  5.00000E-02 [y] snes_conv_reason:    3
  newton =   1 [     222] linear =   134 [     29567] cuts =  0 [   0]
  --> max chng: dpmx=   1.7000E+00 dtmpmx=   6.0968E-02

== TH FLOW =====================================================================
 Step    217 Time=  1.02500E+01 Dt=  5.00000E-02 [y] snes_conv_reason:    3
  newton =   1 [     223] linear =   136 [     29703] cuts =  0 [   0]
  --> max chng: dpmx=   1.6962E+00 dtmpmx=   6.0876E-02

== TH FLOW =====================================================================
 Step    218 Time=  1.03000E+01 Dt=  5.00000E-02 [y] snes_conv_reason:    3
  newton =   1 [     224] linear =   129 [     29832] cuts =  0 [   0]
  --> max chng: dpmx=   1.6932E+00 dtmpmx=   6.0721E-02

== TH FLOW =====================================================================
 Step    219 Time=  1.03500E+01 Dt=  5.00000E-02 [y] snes_conv_reason:    3
  newton =   1 [     225] linear =   132 [     29964] cuts =  0 [   0]
  --> max chng: dpmx=   1.6896E+00 dtmpmx=   6.0492E-02

== TH FLOW =====================================================================
 Step    220 Time=  1.04000E+01 Dt=  5.00000E-02 [y] snes_conv_reason:    3
  newton =   1 [     226] linear =   132 [     30096] cuts =  0 [   0]
  --> max chng: dpmx=   1.6856E+00 dtmpmx=   6.0291E-02

== TH FLOW =====================================================================
 Step    221 Time=  1.04500E+01 Dt=  5.00000E-02 [y] snes_conv_reason:    3
  newton =   1 [     227] linear =   134 [     30230] cuts =  0 [   0]
  --> max chng: dpmx=   1.6824E+00 dtmpmx=   6.0181E-02

== TH FLOW =====================================================================
 Step    222 Time=  1.05000E+01 Dt=  5.00000E-02 [y] snes_conv_reason:    3
  newton =   1 [     228] linear =   134 [     30364] cuts =  0 [   0]
  --> max chng: dpmx=   1.6787E+00 dtmpmx=   6.0000E-02

== TH FLOW =====================================================================
 Step    223 Time=  1.05500E+01 Dt=  5.00000E-02 [y] snes_conv_reason:    3
  newton =   1 [     229] linear =   135 [     30499] cuts =  0 [   0]
  --> max chng: dpmx=   1.6750E+00 dtmpmx=   5.9748E-02

== TH FLOW =====================================================================
 Step    224 Time=  1.06000E+01 Dt=  5.00000E-02 [y] snes_conv_reason:    3
  newton =   1 [     230] linear =   135 [     30634] cuts =  0 [   0]
  --> max chng: dpmx=   1.6717E+00 dtmpmx=   5.9629E-02

== TH FLOW =====================================================================
 Step    225 Time=  1.06500E+01 Dt=  5.00000E-02 [y] snes_conv_reason:    3
  newton =   1 [     231] linear =   136 [     30770] cuts =  0 [   0]
  --> max chng: dpmx=   1.6680E+00 dtmpmx=   5.9493E-02

== TH FLOW =====================================================================
 Step    226 Time=  1.07000E+01 Dt=  5.00000E-02 [y] snes_conv_reason:    3
  newton =   1 [     232] linear =   134 [     30904] cuts =  0 [   0]
  --> max chng: dpmx=   1.6643E+00 dtmpmx=   5.9287E-02

== TH FLOW =====================================================================
 Step    227 Time=  1.07500E+01 Dt=  5.00000E-02 [y] snes_conv_reason:    3
  newton =   1 [     233] linear =   133 [     31037] cuts =  0 [   0]
  --> max chng: dpmx=   1.6610E+00 dtmpmx=   5.9065E-02

== TH FLOW =====================================================================
 Step    228 Time=  1.08000E+01 Dt=  5.00000E-02 [y] snes_conv_reason:    3
  newton =   1 [     234] linear =   134 [     31171] cuts =  0 [   0]
  --> max chng: dpmx=   1.6570E+00 dtmpmx=   5.8972E-02

== TH FLOW =====================================================================
 Step    229 Time=  1.08500E+01 Dt=  5.00000E-02 [y] snes_conv_reason:    3
  newton =   1 [     235] linear =   133 [     31304] cuts =  0 [   0]
  --> max chng: dpmx=   1.6533E+00 dtmpmx=   5.8811E-02

== TH FLOW =====================================================================
 Step    230 Time=  1.09000E+01 Dt=  5.00000E-02 [y] snes_conv_reason:    3
  newton =   1 [     236] linear =   131 [     31435] cuts =  0 [   0]
  --> max chng: dpmx=   1.6505E+00 dtmpmx=   5.8582E-02

== TH FLOW =====================================================================
 Step    231 Time=  1.09500E+01 Dt=  5.00000E-02 [y] snes_conv_reason:    3
  newton =   1 [     237] linear =   132 [     31567] cuts =  0 [   0]
  --> max chng: dpmx=   1.6469E+00 dtmpmx=   5.8440E-02

== TH FLOW =====================================================================
 Step    232 Time=  1.10000E+01 Dt=  5.00000E-02 [y] snes_conv_reason:    3
  newton =   1 [     238] linear =   128 [     31695] cuts =  0 [   0]
  --> max chng: dpmx=   1.6428E+00 dtmpmx=   5.8321E-02

== TH FLOW =====================================================================
 Step    233 Time=  1.10500E+01 Dt=  5.00000E-02 [y] snes_conv_reason:    3
  newton =   1 [     239] linear =   136 [     31831] cuts =  0 [   0]
  --> max chng: dpmx=   1.6395E+00 dtmpmx=   5.8135E-02

== TH FLOW =====================================================================
 Step    234 Time=  1.11000E+01 Dt=  5.00000E-02 [y] snes_conv_reason:    3
  newton =   1 [     240] linear =   132 [     31963] cuts =  0 [   0]
  --> max chng: dpmx=   1.6363E+00 dtmpmx=   5.7896E-02

== TH FLOW =====================================================================
 Step    235 Time=  1.11500E+01 Dt=  5.00000E-02 [y] snes_conv_reason:    3
  newton =   1 [     241] linear =   133 [     32096] cuts =  0 [   0]
  --> max chng: dpmx=   1.6321E+00 dtmpmx=   5.7818E-02

== TH FLOW =====================================================================
 Step    236 Time=  1.12000E+01 Dt=  5.00000E-02 [y] snes_conv_reason:    3
  newton =   1 [     242] linear =   131 [     32227] cuts =  0 [   0]
  --> max chng: dpmx=   1.6293E+00 dtmpmx=   5.7674E-02

== TH FLOW =====================================================================
 Step    237 Time=  1.12500E+01 Dt=  5.00000E-02 [y] snes_conv_reason:    3
  newton =   1 [     243] linear =   131 [     32358] cuts =  0 [   0]
  --> max chng: dpmx=   1.6250E+00 dtmpmx=   5.7466E-02

== TH FLOW =====================================================================
 Step    238 Time=  1.13000E+01 Dt=  5.00000E-02 [y] snes_conv_reason:    3
  newton =   1 [     244] linear =   126 [     32484] cuts =  0 [   0]
  --> max chng: dpmx=   1.6220E+00 dtmpmx=   5.7303E-02

== TH FLOW =====================================================================
 Step    239 Time=  1.13500E+01 Dt=  5.00000E-02 [y] snes_conv_reason:    3
  newton =   1 [     245] linear =   123 [     32607] cuts =  0 [   0]
  --> max chng: dpmx=   1.6185E+00 dtmpmx=   5.7200E-02

== TH FLOW =====================================================================
 Step    240 Time=  1.14000E+01 Dt=  5.00000E-02 [y] snes_conv_reason:    3
  newton =   1 [     246] linear =   130 [     32737] cuts =  0 [   0]
  --> max chng: dpmx=   1.6146E+00 dtmpmx=   5.7033E-02

== TH FLOW =====================================================================
 Step    241 Time=  1.14500E+01 Dt=  5.00000E-02 [y] snes_conv_reason:    3
  newton =   1 [     247] linear =   133 [     32870] cuts =  0 [   0]
  --> max chng: dpmx=   1.6114E+00 dtmpmx=   5.6803E-02

== TH FLOW =====================================================================
 Step    242 Time=  1.15000E+01 Dt=  5.00000E-02 [y] snes_conv_reason:    3
  newton =   1 [     248] linear =   134 [     33004] cuts =  0 [   0]
  --> max chng: dpmx=   1.6080E+00 dtmpmx=   5.6713E-02

== TH FLOW =====================================================================
 Step    243 Time=  1.15500E+01 Dt=  5.00000E-02 [y] snes_conv_reason:    3
  newton =   1 [     249] linear =   129 [     33133] cuts =  0 [   0]
  --> max chng: dpmx=   1.6038E+00 dtmpmx=   5.6586E-02

== TH FLOW =====================================================================
 Step    244 Time=  1.16000E+01 Dt=  5.00000E-02 [y] snes_conv_reason:    3
  newton =   1 [     250] linear =   128 [     33261] cuts =  0 [   0]
  --> max chng: dpmx=   1.6009E+00 dtmpmx=   5.6397E-02

== TH FLOW =====================================================================
 Step    245 Time=  1.16500E+01 Dt=  5.00000E-02 [y] snes_conv_reason:    3
  newton =   1 [     251] linear =   132 [     33393] cuts =  0 [   0]
  --> max chng: dpmx=   1.5971E+00 dtmpmx=   5.6216E-02

== TH FLOW =====================================================================
 Step    246 Time=  1.17000E+01 Dt=  5.00000E-02 [y] snes_conv_reason:    3
  newton =   1 [     252] linear =   135 [     33528] cuts =  0 [   0]
  --> max chng: dpmx=   1.5941E+00 dtmpmx=   5.6127E-02

== TH FLOW =====================================================================
 Step    247 Time=  1.17500E+01 Dt=  5.00000E-02 [y] snes_conv_reason:    3
  newton =   1 [     253] linear =   131 [     33659] cuts =  0 [   0]
  --> max chng: dpmx=   1.5902E+00 dtmpmx=   5.5977E-02

== TH FLOW =====================================================================
 Step    248 Time=  1.18000E+01 Dt=  5.00000E-02 [y] snes_conv_reason:    3
  newton =   1 [     254] linear =   127 [     33786] cuts =  0 [   0]
  --> max chng: dpmx=   1.5863E+00 dtmpmx=   5.5767E-02

== TH FLOW =====================================================================
 Step    249 Time=  1.18500E+01 Dt=  5.00000E-02 [y] snes_conv_reason:    3
  newton =   1 [     255] linear =   131 [     33917] cuts =  0 [   0]
  --> max chng: dpmx=   1.5834E+00 dtmpmx=   5.5656E-02

== TH FLOW =====================================================================
 Step    250 Time=  1.19000E+01 Dt=  5.00000E-02 [y] snes_conv_reason:    3
  newton =   1 [     256] linear =   133 [     34050] cuts =  0 [   0]
  --> max chng: dpmx=   1.5799E+00 dtmpmx=   5.5543E-02

== TH FLOW =====================================================================
 Step    251 Time=  1.19500E+01 Dt=  5.00000E-02 [y] snes_conv_reason:    3
  newton =   1 [     257] linear =   133 [     34183] cuts =  0 [   0]
  --> max chng: dpmx=   1.5758E+00 dtmpmx=   5.5372E-02

== TH FLOW =====================================================================
 Step    252 Time=  1.20000E+01 Dt=  5.00000E-02 [y] snes_conv_reason:    3
  newton =   1 [     258] linear =   133 [     34316] cuts =  0 [   0]
  --> max chng: dpmx=   1.5727E+00 dtmpmx=   5.5175E-02

== TH FLOW =====================================================================
 Step    253 Time=  1.20500E+01 Dt=  5.00000E-02 [y] snes_conv_reason:    3
  newton =   1 [     259] linear =   131 [     34447] cuts =  0 [   0]
  --> max chng: dpmx=   1.5693E+00 dtmpmx=   5.5098E-02

== TH FLOW =====================================================================
 Step    254 Time=  1.21000E+01 Dt=  5.00000E-02 [y] snes_conv_reason:    3
  newton =   1 [     260] linear =   133 [     34580] cuts =  0 [   0]
  --> max chng: dpmx=   1.5655E+00 dtmpmx=   5.4963E-02

== TH FLOW =====================================================================
 Step    255 Time=  1.21500E+01 Dt=  5.00000E-02 [y] snes_conv_reason:    3
  newton =   1 [     261] linear =   131 [     34711] cuts =  0 [   0]
  --> max chng: dpmx=   1.5620E+00 dtmpmx=   5.4772E-02

== TH FLOW =====================================================================
 Step    256 Time=  1.22000E+01 Dt=  5.00000E-02 [y] snes_conv_reason:    3
  newton =   1 [     262] linear =   132 [     34843] cuts =  0 [   0]
  --> max chng: dpmx=   1.5594E+00 dtmpmx=   5.4642E-02

== TH FLOW =====================================================================
 Step    257 Time=  1.22500E+01 Dt=  5.00000E-02 [y] snes_conv_reason:    3
  newton =   1 [     263] linear =   131 [     34974] cuts =  0 [   0]
  --> max chng: dpmx=   1.5547E+00 dtmpmx=   5.4543E-02

[...]
 Step    493 Time=  2.40500E+01 Dt=  5.00000E-02 [y] snes_conv_reason:    3
  newton =   1 [     499] linear =   132 [     66265] cuts =  0 [   0]
  --> max chng: dpmx=   1.4301E+00 dtmpmx=   3.4677E-02

== TH FLOW =====================================================================
 Step    494 Time=  2.41000E+01 Dt=  5.00000E-02 [y] snes_conv_reason:    3
  newton =   1 [     500] linear =   132 [     66397] cuts =  0 [   0]
  --> max chng: dpmx=   1.4332E+00 dtmpmx=   3.4613E-02

== TH FLOW =====================================================================
 Step    495 Time=  2.41500E+01 Dt=  5.00000E-02 [y] snes_conv_reason:    3
  newton =   1 [     501] linear =   132 [     66529] cuts =  0 [   0]
  --> max chng: dpmx=   1.4364E+00 dtmpmx=   3.4581E-02

== TH FLOW =====================================================================
 Step    496 Time=  2.42000E+01 Dt=  5.00000E-02 [y] snes_conv_reason:    3
  newton =   1 [     502] linear =   129 [     66658] cuts =  0 [   0]
  --> max chng: dpmx=   1.4391E+00 dtmpmx=   3.4530E-02

== TH FLOW =====================================================================
 Step    497 Time=  2.42500E+01 Dt=  5.00000E-02 [y] snes_conv_reason:    3
  newton =   1 [     503] linear =   132 [     66790] cuts =  0 [   0]
  --> max chng: dpmx=   1.4422E+00 dtmpmx=   3.4460E-02

== TH FLOW =====================================================================
 Step    498 Time=  2.43000E+01 Dt=  5.00000E-02 [y] snes_conv_reason:    3
  newton =   1 [     504] linear =   131 [     66921] cuts =  0 [   0]
  --> max chng: dpmx=   1.4453E+00 dtmpmx=   3.4420E-02

== TH FLOW =====================================================================
 Step    499 Time=  2.43500E+01 Dt=  5.00000E-02 [y] snes_conv_reason:    3
  newton =   1 [     505] linear =   130 [     67051] cuts =  0 [   0]
  --> max chng: dpmx=   1.4484E+00 dtmpmx=   3.4379E-02

== TH FLOW =====================================================================
 Step    500 Time=  2.44000E+01 Dt=  5.00000E-02 [y] snes_conv_reason:    3
  newton =   1 [     506] linear =   131 [     67182] cuts =  0 [   0]
  --> max chng: dpmx=   1.4511E+00 dtmpmx=   3.4320E-02

== TH FLOW =====================================================================
 Step    501 Time=  2.44500E+01 Dt=  5.00000E-02 [y] snes_conv_reason:    3
  newton =   1 [     507] linear =   135 [     67317] cuts =  0 [   0]
  --> max chng: dpmx=   1.4543E+00 dtmpmx=   3.4254E-02

== TH FLOW =====================================================================
 Step    502 Time=  2.45000E+01 Dt=  5.00000E-02 [y] snes_conv_reason:    3
  newton =   1 [     508] linear =   132 [     67449] cuts =  0 [   0]
  --> max chng: dpmx=   1.4574E+00 dtmpmx=   3.4224E-02

== TH FLOW =====================================================================
 Step    503 Time=  2.45500E+01 Dt=  5.00000E-02 [y] snes_conv_reason:    3
  newton =   1 [     509] linear =   130 [     67579] cuts =  0 [   0]
  --> max chng: dpmx=   1.4603E+00 dtmpmx=   3.4175E-02

== TH FLOW =====================================================================
 Step    504 Time=  2.46000E+01 Dt=  5.00000E-02 [y] snes_conv_reason:    3
  newton =   1 [     510] linear =   130 [     67709] cuts =  0 [   0]
  --> max chng: dpmx=   1.4632E+00 dtmpmx=   3.4108E-02

== TH FLOW =====================================================================
 Step    505 Time=  2.46500E+01 Dt=  5.00000E-02 [y] snes_conv_reason:    3
  newton =   1 [     511] linear =   130 [     67839] cuts =  0 [   0]
  --> max chng: dpmx=   1.4663E+00 dtmpmx=   3.4065E-02

== TH FLOW =====================================================================
 Step    506 Time=  2.47000E+01 Dt=  5.00000E-02 [y] snes_conv_reason:    3
  newton =   1 [     512] linear =   132 [     67971] cuts =  0 [   0]
  --> max chng: dpmx=   1.4692E+00 dtmpmx=   3.4027E-02

== TH FLOW =====================================================================
 Step    507 Time=  2.47500E+01 Dt=  5.00000E-02 [y] snes_conv_reason:    3
  newton =   1 [     513] linear =   132 [     68103] cuts =  0 [   0]
  --> max chng: dpmx=   1.4723E+00 dtmpmx=   3.3970E-02

== TH FLOW =====================================================================
 Step    508 Time=  2.48000E+01 Dt=  5.00000E-02 [y] snes_conv_reason:    3
  newton =   1 [     514] linear =   126 [     68229] cuts =  0 [   0]
  --> max chng: dpmx=   1.4752E+00 dtmpmx=   3.3902E-02

== TH FLOW =====================================================================
 Step    509 Time=  2.48500E+01 Dt=  5.00000E-02 [y] snes_conv_reason:    3
  newton =   1 [     515] linear =   131 [     68360] cuts =  0 [   0]
  --> max chng: dpmx=   1.4783E+00 dtmpmx=   3.3874E-02

== TH FLOW =====================================================================
 Step    510 Time=  2.49000E+01 Dt=  5.00000E-02 [y] snes_conv_reason:    3
  newton =   1 [     516] linear =   131 [     68491] cuts =  0 [   0]
  --> max chng: dpmx=   1.4814E+00 dtmpmx=   3.3828E-02

== TH FLOW =====================================================================
 Step    511 Time=  2.49500E+01 Dt=  5.00000E-02 [y] snes_conv_reason:    3
  newton =   1 [     517] linear =   132 [     68623] cuts =  0 [   0]
  --> max chng: dpmx=   1.4844E+00 dtmpmx=   3.3763E-02

== TH FLOW =====================================================================
 Step    512 Time=  2.50000E+01 Dt=  5.00000E-02 [y] snes_conv_reason:    3
  newton =   1 [     518] linear =   131 [     68754] cuts =  0 [   0]
  --> max chng: dpmx=   1.4873E+00 dtmpmx=   3.3718E-02

== TH FLOW =====================================================================
 Step    513 Time=  2.50500E+01 Dt=  5.00000E-02 [y] snes_conv_reason:    3
  newton =   1 [     519] linear =   132 [     68886] cuts =  0 [   0]
  --> max chng: dpmx=   1.4904E+00 dtmpmx=   3.3682E-02

== TH FLOW =====================================================================
 Step    514 Time=  2.51000E+01 Dt=  5.00000E-02 [y] snes_conv_reason:    3
  newton =   1 [     520] linear =   132 [     69018] cuts =  0 [   0]
  --> max chng: dpmx=   1.4936E+00 dtmpmx=   3.3628E-02

== TH FLOW =====================================================================
 Step    515 Time=  2.51500E+01 Dt=  5.00000E-02 [y] snes_conv_reason:    3
  newton =   1 [     521] linear =   127 [     69145] cuts =  0 [   0]
  --> max chng: dpmx=   1.4964E+00 dtmpmx=   3.3558E-02

== TH FLOW =====================================================================
 Step    516 Time=  2.52000E+01 Dt=  5.00000E-02 [y] snes_conv_reason:    3
  newton =   1 [     522] linear =   126 [     69271] cuts =  0 [   0]
  --> max chng: dpmx=   1.4992E+00 dtmpmx=   3.3532E-02

== TH FLOW =====================================================================
 Step    517 Time=  2.52500E+01 Dt=  5.00000E-02 [y] snes_conv_reason:    3
  newton =   1 [     523] linear =   131 [     69402] cuts =  0 [   0]
  --> max chng: dpmx=   1.5029E+00 dtmpmx=   3.3488E-02

== TH FLOW =====================================================================
 Step    518 Time=  2.53000E+01 Dt=  5.00000E-02 [y] snes_conv_reason:    3
  newton =   1 [     524] linear =   130 [     69532] cuts =  0 [   0]
  --> max chng: dpmx=   1.5056E+00 dtmpmx=   3.3426E-02

== TH FLOW =====================================================================
 Step    519 Time=  2.53500E+01 Dt=  5.00000E-02 [y] snes_conv_reason:    3
  newton =   1 [     525] linear =   127 [     69659] cuts =  0 [   0]
  --> max chng: dpmx=   1.5083E+00 dtmpmx=   3.3378E-02

== TH FLOW =====================================================================
 Step    520 Time=  2.54000E+01 Dt=  5.00000E-02 [y] snes_conv_reason:    3
  newton =   1 [     526] linear =   129 [     69788] cuts =  0 [   0]
  --> max chng: dpmx=   1.5117E+00 dtmpmx=   3.3344E-02

== TH FLOW =====================================================================
 Step    521 Time=  2.54500E+01 Dt=  5.00000E-02 [y] snes_conv_reason:    3
  newton =   1 [     527] linear =   132 [     69920] cuts =  0 [   0]
  --> max chng: dpmx=   1.5148E+00 dtmpmx=   3.3292E-02

== TH FLOW =====================================================================
 Step    522 Time=  2.55000E+01 Dt=  5.00000E-02 [y] snes_conv_reason:    3
  newton =   1 [     528] linear =   129 [     70049] cuts =  0 [   0]
  --> max chng: dpmx=   1.5176E+00 dtmpmx=   3.3223E-02

== TH FLOW =====================================================================
 Step    523 Time=  2.55500E+01 Dt=  5.00000E-02 [y] snes_conv_reason:    3
  newton =   1 [     529] linear =   129 [     70178] cuts =  0 [   0]
  --> max chng: dpmx=   1.5205E+00 dtmpmx=   3.3196E-02

== TH FLOW =====================================================================
 Step    524 Time=  2.56000E+01 Dt=  5.00000E-02 [y] snes_conv_reason:    3
  newton =   1 [     530] linear =   130 [     70308] cuts =  0 [   0]
  --> max chng: dpmx=   1.5238E+00 dtmpmx=   3.3154E-02

== TH FLOW =====================================================================
 Step    525 Time=  2.56500E+01 Dt=  5.00000E-02 [y] snes_conv_reason:    3
  newton =   1 [     531] linear =   132 [     70440] cuts =  0 [   0]
  --> max chng: dpmx=   1.5270E+00 dtmpmx=   3.3095E-02

== TH FLOW =====================================================================
 Step    526 Time=  2.57000E+01 Dt=  5.00000E-02 [y] snes_conv_reason:    3
  newton =   1 [     532] linear =   134 [     70574] cuts =  0 [   0]
  --> max chng: dpmx=   1.5297E+00 dtmpmx=   3.3045E-02

== TH FLOW =====================================================================
 Step    527 Time=  2.57500E+01 Dt=  5.00000E-02 [y] snes_conv_reason:    3
  newton =   1 [     533] linear =   128 [     70702] cuts =  0 [   0]
  --> max chng: dpmx=   1.5325E+00 dtmpmx=   3.3013E-02

== TH FLOW =====================================================================
 Step    528 Time=  2.58000E+01 Dt=  5.00000E-02 [y] snes_conv_reason:    3
  newton =   1 [     534] linear =   126 [     70828] cuts =  0 [   0]
  --> max chng: dpmx=   1.5361E+00 dtmpmx=   3.2963E-02

== TH FLOW =====================================================================
 Step    529 Time=  2.58500E+01 Dt=  5.00000E-02 [y] snes_conv_reason:    3
  newton =   1 [     535] linear =   126 [     70954] cuts =  0 [   0]
  --> max chng: dpmx=   1.5389E+00 dtmpmx=   3.2897E-02

== TH FLOW =====================================================================
 Step    530 Time=  2.59000E+01 Dt=  5.00000E-02 [y] snes_conv_reason:    3
  newton =   1 [     536] linear =   128 [     71082] cuts =  0 [   0]
  --> max chng: dpmx=   1.5420E+00 dtmpmx=   3.2868E-02

== TH FLOW =====================================================================
 Step    531 Time=  2.59500E+01 Dt=  5.00000E-02 [y] snes_conv_reason:    3
  newton =   1 [     537] linear =   129 [     71211] cuts =  0 [   0]
  --> max chng: dpmx=   1.5447E+00 dtmpmx=   3.2828E-02

== TH FLOW =====================================================================
 Step    532 Time=  2.60000E+01 Dt=  5.00000E-02 [y] snes_conv_reason:    3
  newton =   1 [     538] linear =   131 [     71342] cuts =  0 [   0]
  --> max chng: dpmx=   1.5482E+00 dtmpmx=   3.2771E-02

== TH FLOW =====================================================================
 Step    533 Time=  2.60500E+01 Dt=  5.00000E-02 [y] snes_conv_reason:    3
  newton =   1 [     539] linear =   131 [     71473] cuts =  0 [   0]
  --> max chng: dpmx=   1.5511E+00 dtmpmx=   3.2719E-02

== TH FLOW =====================================================================
 Step    534 Time=  2.61000E+01 Dt=  5.00000E-02 [y] snes_conv_reason:    3
  newton =   1 [     540] linear =   127 [     71600] cuts =  0 [   0]
  --> max chng: dpmx=   1.5541E+00 dtmpmx=   3.2689E-02

== TH FLOW =====================================================================
 Step    535 Time=  2.61500E+01 Dt=  5.00000E-02 [y] snes_conv_reason:    3
  newton =   1 [     541] linear =   129 [     71729] cuts =  0 [   0]
  --> max chng: dpmx=   1.5572E+00 dtmpmx=   3.2641E-02

== TH FLOW =====================================================================
 Step    536 Time=  2.62000E+01 Dt=  5.00000E-02 [y] snes_conv_reason:    3
  newton =   1 [     542] linear =   134 [     71863] cuts =  0 [   0]
  --> max chng: dpmx=   1.5603E+00 dtmpmx=   3.2577E-02

== TH FLOW =====================================================================
 Step    537 Time=  2.62500E+01 Dt=  5.00000E-02 [y] snes_conv_reason:    3
  newton =   1 [     543] linear =   130 [     71993] cuts =  0 [   0]
  --> max chng: dpmx=   1.5632E+00 dtmpmx=   3.2546E-02

== TH FLOW =====================================================================
 Step    538 Time=  2.63000E+01 Dt=  5.00000E-02 [y] snes_conv_reason:    3
  newton =   1 [     544] linear =   130 [     72123] cuts =  0 [   0]
  --> max chng: dpmx=   1.5664E+00 dtmpmx=   3.2508E-02

== TH FLOW =====================================================================
 Step    539 Time=  2.63500E+01 Dt=  5.00000E-02 [y] snes_conv_reason:    3
  newton =   1 [     545] linear =   130 [     72253] cuts =  0 [   0]
  --> max chng: dpmx=   1.5693E+00 dtmpmx=   3.2453E-02

== TH FLOW =====================================================================
 Step    540 Time=  2.64000E+01 Dt=  5.00000E-02 [y] snes_conv_reason:    3
  newton =   1 [     546] linear =   131 [     72384] cuts =  0 [   0]
  --> max chng: dpmx=   1.5725E+00 dtmpmx=   3.2400E-02

== TH FLOW =====================================================================
 Step    541 Time=  2.64500E+01 Dt=  5.00000E-02 [y] snes_conv_reason:    3
  newton =   1 [     547] linear =   130 [     72514] cuts =  0 [   0]
  --> max chng: dpmx=   1.5756E+00 dtmpmx=   3.2371E-02

== TH FLOW =====================================================================
 Step    542 Time=  2.65000E+01 Dt=  5.00000E-02 [y] snes_conv_reason:    3
  newton =   1 [     548] linear =   131 [     72645] cuts =  0 [   0]
  --> max chng: dpmx=   1.5784E+00 dtmpmx=   3.2326E-02

== TH FLOW =====================================================================
 Step    543 Time=  2.65500E+01 Dt=  5.00000E-02 [y] snes_conv_reason:    3
  newton =   1 [     549] linear =   127 [     72772] cuts =  0 [   0]
  --> max chng: dpmx=   1.5813E+00 dtmpmx=   3.2264E-02

== TH FLOW =====================================================================
 Step    544 Time=  2.66000E+01 Dt=  5.00000E-02 [y] snes_conv_reason:    3
  newton =   1 [     550] linear =   127 [     72899] cuts =  0 [   0]
  --> max chng: dpmx=   1.5847E+00 dtmpmx=   3.2231E-02

== TH FLOW =====================================================================
 Step    545 Time=  2.66500E+01 Dt=  5.00000E-02 [y] snes_conv_reason:    3
  newton =   1 [     551] linear =   131 [     73030] cuts =  0 [   0]
  --> max chng: dpmx=   1.5880E+00 dtmpmx=   3.2194E-02

== TH FLOW =====================================================================
 Step    546 Time=  2.67000E+01 Dt=  5.00000E-02 [y] snes_conv_reason:    3
  newton =   1 [     552] linear =   131 [     73161] cuts =  0 [   0]
  --> max chng: dpmx=   1.5904E+00 dtmpmx=   3.2142E-02

== TH FLOW =====================================================================
 Step    547 Time=  2.67500E+01 Dt=  5.00000E-02 [y] snes_conv_reason:    3
  newton =   1 [     553] linear =   131 [     73292] cuts =  0 [   0]
  --> max chng: dpmx=   1.5942E+00 dtmpmx=   3.2087E-02

== TH FLOW =====================================================================
 Step    548 Time=  2.68000E+01 Dt=  5.00000E-02 [y] snes_conv_reason:    3
  newton =   1 [     554] linear =   133 [     73425] cuts =  0 [   0]
  --> max chng: dpmx=   1.5968E+00 dtmpmx=   3.2060E-02

== TH FLOW =====================================================================
 Step    549 Time=  2.68500E+01 Dt=  5.00000E-02 [y] snes_conv_reason:    3
  newton =   1 [     555] linear =   126 [     73551] cuts =  0 [   0]
  --> max chng: dpmx=   1.6000E+00 dtmpmx=   3.2016E-02

== TH FLOW =====================================================================
 Step    550 Time=  2.69000E+01 Dt=  5.00000E-02 [y] snes_conv_reason:    3
  newton =   1 [     556] linear =   134 [     73685] cuts =  0 [   0]
  --> max chng: dpmx=   1.6028E+00 dtmpmx=   3.1956E-02

== TH FLOW =====================================================================
 Step    551 Time=  2.69500E+01 Dt=  5.00000E-02 [y] snes_conv_reason:    3
  newton =   1 [     557] linear =   133 [     73818] cuts =  0 [   0]
  --> max chng: dpmx=   1.6061E+00 dtmpmx=   3.1922E-02

== TH FLOW =====================================================================
 Step    552 Time=  2.70000E+01 Dt=  5.00000E-02 [y] snes_conv_reason:    3
  newton =   1 [     558] linear =   133 [     73951] cuts =  0 [   0]
  --> max chng: dpmx=   1.6092E+00 dtmpmx=   3.1887E-02

== TH FLOW =====================================================================
 Step    553 Time=  2.70500E+01 Dt=  5.00000E-02 [y] snes_conv_reason:    3
  newton =   1 [     559] linear =   133 [     74084] cuts =  0 [   0]
  --> max chng: dpmx=   1.6122E+00 dtmpmx=   3.1836E-02

== TH FLOW =====================================================================
 Step    554 Time=  2.71000E+01 Dt=  5.00000E-02 [y] snes_conv_reason:    3
  newton =   1 [     560] linear =   133 [     74217] cuts =  0 [   0]
  --> max chng: dpmx=   1.6152E+00 dtmpmx=   3.1780E-02

== TH FLOW =====================================================================
 Step    555 Time=  2.71500E+01 Dt=  5.00000E-02 [y] snes_conv_reason:    3
  newton =   1 [     561] linear =   133 [     74350] cuts =  0 [   0]
  --> max chng: dpmx=   1.6184E+00 dtmpmx=   3.1754E-02

== TH FLOW =====================================================================
 Step    556 Time=  2.72000E+01 Dt=  5.00000E-02 [y] snes_conv_reason:    3
  newton =   1 [     562] linear =   125 [     74475] cuts =  0 [   0]
  --> max chng: dpmx=   1.6216E+00 dtmpmx=   3.1713E-02

== TH FLOW =====================================================================
 Step    557 Time=  2.72500E+01 Dt=  5.00000E-02 [y] snes_conv_reason:    3
  newton =   1 [     563] linear =   125 [     74600] cuts =  0 [   0]
  --> max chng: dpmx=   1.6244E+00 dtmpmx=   3.1655E-02

== TH FLOW =====================================================================
 Step    558 Time=  2.73000E+01 Dt=  5.00000E-02 [y] snes_conv_reason:    3
  newton =   1 [     564] linear =   131 [     74731] cuts =  0 [   0]
  --> max chng: dpmx=   1.6271E+00 dtmpmx=   3.1619E-02

== TH FLOW =====================================================================
 Step    559 Time=  2.73500E+01 Dt=  5.00000E-02 [y] snes_conv_reason:    3
  newton =   1 [     565] linear =   133 [     74864] cuts =  0 [   0]
  --> max chng: dpmx=   1.6310E+00 dtmpmx=   3.1585E-02

== TH FLOW =====================================================================
 Step    560 Time=  2.74000E+01 Dt=  5.00000E-02 [y] snes_conv_reason:    3
  newton =   1 [     566] linear =   126 [     74990] cuts =  0 [   0]
  --> max chng: dpmx=   1.6336E+00 dtmpmx=   3.1537E-02

== TH FLOW =====================================================================
 Step    561 Time=  2.74500E+01 Dt=  5.00000E-02 [y] snes_conv_reason:    3
  newton =   1 [     567] linear =   126 [     75116] cuts =  0 [   0]
  --> max chng: dpmx=   1.6371E+00 dtmpmx=   3.1480E-02

== TH FLOW =====================================================================
 Step    562 Time=  2.75000E+01 Dt=  5.00000E-02 [y] snes_conv_reason:    3
  newton =   1 [     568] linear =   129 [     75245] cuts =  0 [   0]
  --> max chng: dpmx=   1.6399E+00 dtmpmx=   3.1455E-02

 Wall Clock Time:  9.1192E+01 [sec]   1.5199E+00 [min]   2.5331E-02 [hr]
