
===================
  PFLOTRAN v3.0.1
===================

 Extent of Gridded Domain
  X: 2.5000000000000000 - 97.500000000000000
  Y: 2.5000000000000000 - 1277.5000000000000
  Z: 2.5000000000000000 - 2.5000000000000000


=+=+=+=+=+=+=+=+=+=+=+=+=+=+=+=+=+=+=+=+=+=+=+=+=+=+=+=+=+=+=+=+=+=+=+=+=+=+=+=+

  Initial Condition

--------------------------------------------------------------------------------
          Flow Condition:   initial
                  Region:   all
--------------------------------------------------------------------------------

  Flow Condition: initial
    Synchronize time with update: no
    Time units: yr
    Length units: m
      Datum:
        Dataset: Unnamed Ascii Dataset
          Type: dataset_ascii_type
          Transient: no
          Array Rank:  3

    Sub Condition: pressure
      Type: hydrostatic
      Gradient:
        Dataset: Unnamed Ascii Dataset
          Type: dataset_ascii_type
          Transient: no
          Array Rank:  3
      Data:
        Dataset: Unnamed Ascii Dataset
          Type: dataset_ascii_type
          Transient: no
          Array Rank:  1

    Sub Condition: temperature
      Type: dirichlet
      Gradient:
      Data:
        Dataset: Unnamed Ascii Dataset
          Type: dataset_ascii_type
          Transient: no
          Array Rank:  1

--------------------------------------------------------------------------------

=+=+=+=+=+=+=+=+=+=+=+=+=+=+=+=+=+=+=+=+=+=+=+=+=+=+=+=+=+=+=+=+=+=+=+=+=+=+=+=+

  Boundary Condition

--------------------------------------------------------------------------------
          Flow Condition:   initial
                  Region:   north
--------------------------------------------------------------------------------

  Flow Condition: initial
    Synchronize time with update: no
    Time units: yr
    Length units: m
      Datum:
        Dataset: Unnamed Ascii Dataset
          Type: dataset_ascii_type
          Transient: no
          Array Rank:  3

    Sub Condition: pressure
      Type: hydrostatic
      Gradient:
        Dataset: Unnamed Ascii Dataset
          Type: dataset_ascii_type
          Transient: no
          Array Rank:  3
      Data:
        Dataset: Unnamed Ascii Dataset
          Type: dataset_ascii_type
          Transient: no
          Array Rank:  1

    Sub Condition: temperature
      Type: dirichlet
      Gradient:
      Data:
        Dataset: Unnamed Ascii Dataset
          Type: dataset_ascii_type
          Transient: no
          Array Rank:  1

--------------------------------------------------------------------------------

=+=+=+=+=+=+=+=+=+=+=+=+=+=+=+=+=+=+=+=+=+=+=+=+=+=+=+=+=+=+=+=+=+=+=+=+=+=+=+=+

  Boundary Condition

--------------------------------------------------------------------------------
          Flow Condition:   initial
                  Region:   south
--------------------------------------------------------------------------------

  Flow Condition: initial
    Synchronize time with update: no
    Time units: yr
    Length units: m
      Datum:
        Dataset: Unnamed Ascii Dataset
          Type: dataset_ascii_type
          Transient: no
          Array Rank:  3

    Sub Condition: pressure
      Type: hydrostatic
      Gradient:
        Dataset: Unnamed Ascii Dataset
          Type: dataset_ascii_type
          Transient: no
          Array Rank:  3
      Data:
        Dataset: Unnamed Ascii Dataset
          Type: dataset_ascii_type
          Transient: no
          Array Rank:  1

    Sub Condition: temperature
      Type: dirichlet
      Gradient:
      Data:
        Dataset: Unnamed Ascii Dataset
          Type: dataset_ascii_type
          Transient: no
          Array Rank:  1

--------------------------------------------------------------------------------

=+=+=+=+=+=+=+=+=+=+=+=+=+=+=+=+=+=+=+=+=+=+=+=+=+=+=+=+=+=+=+=+=+=+=+=+=+=+=+=+

  Source Sink

--------------------------------------------------------------------------------
          Flow Condition:   injection
                  Region:   heatpump_inject0
--------------------------------------------------------------------------------

  Flow Condition: injection
    Synchronize time with update: no
    Time units: yr
    Length units: m
      Datum:

    Sub Condition: rate
      Type: scaled volumetric rate
      Gradient:
      Data:
        Dataset: Unnamed Ascii Dataset
          Type: dataset_ascii_type
          Is transient?: yes
          Number of times:      3
          Is cyclic?: no
          Buffer:
            Rank:  2
            Dims:    1   3
            Buffer Slice Size:   0
          Array Rank:  1

    Sub Condition: temperature
      Type: dirichlet
      Gradient:
      Data:
        Dataset: Unnamed Ascii Dataset
          Type: dataset_ascii_type
          Transient: no
          Array Rank:  1

--------------------------------------------------------------------------------

 Requested processors =    16

FLOW Time Stepper
                 acceleration: on
       acceleration threshold: 5
       number of ramp entries: 5
                ramp entry #1: 2.0000
                ramp entry #2: 2.0000
                ramp entry #3: 2.0000
                ramp entry #4: 2.0000
                ramp entry #5: 2.0000
                ramp entry #6: 1.8000
                ramp entry #7: 1.6000
                ramp entry #8: 1.4000
                ramp entry #9: 1.2000
               ramp entry #10: 1.0000
               ramp entry #11: 1.0000
               ramp entry #12: 1.0000
               ramp entry #13: 1.0000
      maximum number of steps: 999999
constant time steps threshold: 5
       maximum number of cuts: 16
             reduction factor: 5.000000E-01
        maximum growth factor: 2.000000E+00

FLOW Newton Solver
                         atol: 1.000000E-50
                         rtol: 1.000000E-03
                         stol: 1.000000E-08
                         dtol: 1.000000E+04
                      maxnorm: 1.000000E+20
                    inftolres: -9.990000E+02
                    inftolupd: 1.000000E+00
                 inftolrelupd: -9.990000E+02
                 inftolsclres: -9.990000E+02
                     max iter: 50
                     min iter: 1
                         maxf: 10000
                  matrix type: baij
         precond. matrix type: baij
               inexact newton: off
            print convergence: on
   print detailed convergence: off
          check infinity norm: on

FLOW Linear Solver
                       solver: bcgs
               preconditioner: bjacobi
                         atol: 1.000000E-50
                         rtol: 1.000000E-05
                         dtol: 1.000000E+04
            maximum iteration: 10000

== TH FLOW =====================================================================
 Step      1 Time=  1.00000E-05 Dt=  1.00000E-05 [y] snes_conv_reason:   11
  newton =   1 [       1] linear =    66 [        66] cuts =  0 [   0]
  --> max chng: dpmx=   1.2655E-01 dtmpmx=   2.5950E-08

== TH FLOW =====================================================================
 Step      2 Time=  3.00000E-05 Dt=  2.00000E-05 [y] snes_conv_reason:   11
  newton =   1 [       2] linear =    85 [       151] cuts =  0 [   0]
  --> max chng: dpmx=   1.7428E-02 dtmpmx=   5.1604E-08

== TH FLOW =====================================================================
 Step      3 Time=  7.00000E-05 Dt=  4.00000E-05 [y] snes_conv_reason:   11
  newton =   1 [       3] linear =   112 [       263] cuts =  0 [   0]
  --> max chng: dpmx=   1.2084E-03 dtmpmx=   1.0317E-07

== TH FLOW =====================================================================
 Step      4 Time=  1.50000E-04 Dt=  8.00000E-05 [y] snes_conv_reason:   11
  newton =   1 [       4] linear =   108 [       371] cuts =  0 [   0]
  --> max chng: dpmx=   4.2036E-05 dtmpmx=   2.0634E-07

== TH FLOW =====================================================================
 Step      5 Time=  3.10000E-04 Dt=  1.60000E-04 [y] snes_conv_reason:   11
  newton =   1 [       5] linear =   122 [       493] cuts =  0 [   0]
  --> max chng: dpmx=   1.8087E-06 dtmpmx=   4.1267E-07

== TH FLOW =====================================================================
 Step      6 Time=  6.30000E-04 Dt=  3.20000E-04 [y] snes_conv_reason:   11
  newton =   1 [       6] linear =   112 [       605] cuts =  0 [   0]
  --> max chng: dpmx=   3.7419E-06 dtmpmx=   8.2535E-07

== TH FLOW =====================================================================
 Step      7 Time=  1.27000E-03 Dt=  6.40000E-04 [y] snes_conv_reason:   11
  newton =   1 [       7] linear =   119 [       724] cuts =  0 [   0]
  --> max chng: dpmx=   7.7900E-06 dtmpmx=   1.6507E-06

== TH FLOW =====================================================================
 Step      8 Time=  2.55000E-03 Dt=  1.28000E-03 [y] snes_conv_reason:   11
  newton =   1 [       8] linear =   122 [       846] cuts =  0 [   0]
  --> max chng: dpmx=   1.6815E-05 dtmpmx=   3.3014E-06

== TH FLOW =====================================================================
 Step      9 Time=  5.11000E-03 Dt=  2.56000E-03 [y] snes_conv_reason:   11
  newton =   1 [       9] linear =   124 [       970] cuts =  0 [   0]
  --> max chng: dpmx=   3.8566E-05 dtmpmx=   6.6028E-06

== TH FLOW =====================================================================
 Step     10 Time=  1.02300E-02 Dt=  5.12000E-03 [y] snes_conv_reason:   11
  newton =   1 [      10] linear =   120 [      1090] cuts =  0 [   0]
  --> max chng: dpmx=   9.6869E-05 dtmpmx=   1.3206E-05

== TH FLOW =====================================================================
 Step     11 Time=  2.04700E-02 Dt=  1.02400E-02 [y] snes_conv_reason:   11
  newton =   1 [      11] linear =   120 [      1210] cuts =  0 [   0]
  --> max chng: dpmx=   2.7176E-04 dtmpmx=   2.6411E-05

== TH FLOW =====================================================================
 Step     12 Time=  4.09500E-02 Dt=  2.04800E-02 [y] snes_conv_reason:   11
  newton =   1 [      12] linear =   122 [      1332] cuts =  0 [   0]
  --> max chng: dpmx=   8.4759E-04 dtmpmx=   5.2822E-05

== TH FLOW =====================================================================
 Step     13 Time=  8.19100E-02 Dt=  4.09600E-02 [y] snes_conv_reason:   11
  newton =   1 [      13] linear =   119 [      1451] cuts =  0 [   0]
  --> max chng: dpmx=   2.8590E-03 dtmpmx=   1.0565E-04

== TH FLOW =====================================================================
 Step     14 Time=  1.00000E-01 Dt=  1.80900E-02 [y] snes_conv_reason:   11
  newton =   1 [      14] linear =   122 [      1573] cuts =  0 [   0]
  --> max chng: dpmx=   1.4913E-03 dtmpmx=   4.6658E-05

== TH FLOW =====================================================================
 Step     15 Time=  1.50000E-01 Dt=  5.00000E-02 [y] snes_conv_reason:   11
  newton =   1 [      15] linear =   122 [      1695] cuts =  0 [   0]
  --> max chng: dpmx=   5.7676E-03 dtmpmx=   1.2896E-04

== TH FLOW =====================================================================
 Step     16 Time=  2.00000E-01 Dt=  5.00000E-02 [y] snes_conv_reason:   11
  newton =   1 [      16] linear =   120 [      1815] cuts =  0 [   0]
  --> max chng: dpmx=   7.3569E-03 dtmpmx=   1.2896E-04

== TH FLOW =====================================================================
 Step     17 Time=  2.50000E-01 Dt=  5.00000E-02 [y] snes_conv_reason:   11
  newton =   2 [      18] linear =   241 [      2056] cuts =  0 [   0]
  --> max chng: dpmx=   1.6224E+02 dtmpmx=   1.9230E+00

== TH FLOW =====================================================================
 Step     18 Time=  3.00000E-01 Dt=  5.00000E-02 [y] snes_conv_reason:   11
  newton =   2 [      20] linear =   236 [      2292] cuts =  0 [   0]
  --> max chng: dpmx=   2.3188E+00 dtmpmx=   7.3561E-01

== TH FLOW =====================================================================
 Step     19 Time=  3.50000E-01 Dt=  5.00000E-02 [y] snes_conv_reason:   11
  newton =   2 [      22] linear =   238 [      2530] cuts =  0 [   0]
  --> max chng: dpmx=   2.1663E+00 dtmpmx=   5.3338E-01

== TH FLOW =====================================================================
 Step     20 Time=  4.00000E-01 Dt=  5.00000E-02 [y] snes_conv_reason:   11
  newton =   2 [      24] linear =   246 [      2776] cuts =  0 [   0]
  --> max chng: dpmx=   2.0745E+00 dtmpmx=   4.3382E-01

== TH FLOW =====================================================================
 Step     21 Time=  4.50000E-01 Dt=  5.00000E-02 [y] snes_conv_reason:   11
  newton =   2 [      26] linear =   243 [      3019] cuts =  0 [   0]
  --> max chng: dpmx=   2.0005E+00 dtmpmx=   3.7230E-01

== TH FLOW =====================================================================
 Step     22 Time=  5.00000E-01 Dt=  5.00000E-02 [y] snes_conv_reason:   11
  newton =   2 [      28] linear =   236 [      3255] cuts =  0 [   0]
  --> max chng: dpmx=   1.9346E+00 dtmpmx=   3.2930E-01

== TH FLOW =====================================================================
 Step     23 Time=  5.50000E-01 Dt=  5.00000E-02 [y] snes_conv_reason:   11
  newton =   2 [      30] linear =   241 [      3496] cuts =  0 [   0]
  --> max chng: dpmx=   1.8738E+00 dtmpmx=   2.9664E-01

== TH FLOW =====================================================================
 Step     24 Time=  6.00000E-01 Dt=  5.00000E-02 [y] snes_conv_reason:    3
  newton =   1 [      31] linear =   114 [      3610] cuts =  0 [   0]
  --> max chng: dpmx=   1.8155E+00 dtmpmx=   2.7134E-01

== TH FLOW =====================================================================
 Step     25 Time=  6.50000E-01 Dt=  5.00000E-02 [y] snes_conv_reason:    3
  newton =   1 [      32] linear =   118 [      3728] cuts =  0 [   0]
  --> max chng: dpmx=   1.7606E+00 dtmpmx=   2.5026E-01

== TH FLOW =====================================================================
 Step     26 Time=  7.00000E-01 Dt=  5.00000E-02 [y] snes_conv_reason:    3
  newton =   1 [      33] linear =   122 [      3850] cuts =  0 [   0]
  --> max chng: dpmx=   1.7069E+00 dtmpmx=   2.3294E-01

== TH FLOW =====================================================================
 Step     27 Time=  7.50000E-01 Dt=  5.00000E-02 [y] snes_conv_reason:    3
  newton =   1 [      34] linear =   122 [      3972] cuts =  0 [   0]
  --> max chng: dpmx=   1.6551E+00 dtmpmx=   2.1780E-01

== TH FLOW =====================================================================
 Step     28 Time=  8.00000E-01 Dt=  5.00000E-02 [y] snes_conv_reason:    3
  newton =   1 [      35] linear =   118 [      4090] cuts =  0 [   0]
  --> max chng: dpmx=   1.6037E+00 dtmpmx=   2.0497E-01

== TH FLOW =====================================================================
 Step     29 Time=  8.50000E-01 Dt=  5.00000E-02 [y] snes_conv_reason:    3
  newton =   1 [      36] linear =   119 [      4209] cuts =  0 [   0]
  --> max chng: dpmx=   1.5536E+00 dtmpmx=   1.9346E-01

== TH FLOW =====================================================================
 Step     30 Time=  9.00000E-01 Dt=  5.00000E-02 [y] snes_conv_reason:    3
  newton =   1 [      37] linear =   116 [      4325] cuts =  0 [   0]
  --> max chng: dpmx=   1.5043E+00 dtmpmx=   1.8341E-01

== TH FLOW =====================================================================
 Step     31 Time=  9.50000E-01 Dt=  5.00000E-02 [y] snes_conv_reason:    3
  newton =   1 [      38] linear =   117 [      4442] cuts =  0 [   0]
  --> max chng: dpmx=   1.4552E+00 dtmpmx=   1.7429E-01

== TH FLOW =====================================================================
 Step     32 Time=  1.00000E+00 Dt=  5.00000E-02 [y] snes_conv_reason:    3
  newton =   1 [      39] linear =   117 [      4559] cuts =  0 [   0]
  --> max chng: dpmx=   1.4075E+00 dtmpmx=   1.6613E-01

== TH FLOW =====================================================================
 Step     33 Time=  1.05000E+00 Dt=  5.00000E-02 [y] snes_conv_reason:    3
  newton =   1 [      40] linear =   119 [      4678] cuts =  0 [   0]
  --> max chng: dpmx=   1.3599E+00 dtmpmx=   1.5869E-01

== TH FLOW =====================================================================
 Step     34 Time=  1.10000E+00 Dt=  5.00000E-02 [y] snes_conv_reason:    3
  newton =   1 [      41] linear =   118 [      4796] cuts =  0 [   0]
  --> max chng: dpmx=   1.3128E+00 dtmpmx=   1.5191E-01

== TH FLOW =====================================================================
 Step     35 Time=  1.15000E+00 Dt=  5.00000E-02 [y] snes_conv_reason:    3
  newton =   1 [      42] linear =   119 [      4915] cuts =  0 [   0]
  --> max chng: dpmx=   1.2664E+00 dtmpmx=   1.4569E-01

== TH FLOW =====================================================================
 Step     36 Time=  1.20000E+00 Dt=  5.00000E-02 [y] snes_conv_reason:    3
  newton =   1 [      43] linear =   117 [      5032] cuts =  0 [   0]
  --> max chng: dpmx=   1.2201E+00 dtmpmx=   1.3994E-01

== TH FLOW =====================================================================
 Step     37 Time=  1.25000E+00 Dt=  5.00000E-02 [y] snes_conv_reason:    3
  newton =   1 [      44] linear =   116 [      5148] cuts =  0 [   0]
  --> max chng: dpmx=   1.1744E+00 dtmpmx=   1.3466E-01

== TH FLOW =====================================================================
 Step     38 Time=  1.30000E+00 Dt=  5.00000E-02 [y] snes_conv_reason:    3
  newton =   1 [      45] linear =   114 [      5262] cuts =  0 [   0]
  --> max chng: dpmx=   1.1293E+00 dtmpmx=   1.2971E-01

== TH FLOW =====================================================================
 Step     39 Time=  1.35000E+00 Dt=  5.00000E-02 [y] snes_conv_reason:    3
  newton =   1 [      46] linear =   113 [      5375] cuts =  0 [   0]
  --> max chng: dpmx=   1.0838E+00 dtmpmx=   1.2516E-01

== TH FLOW =====================================================================
 Step     40 Time=  1.40000E+00 Dt=  5.00000E-02 [y] snes_conv_reason:    3
  newton =   1 [      47] linear =   111 [      5486] cuts =  0 [   0]
  --> max chng: dpmx=   1.0393E+00 dtmpmx=   1.2085E-01

== TH FLOW =====================================================================
 Step     41 Time=  1.45000E+00 Dt=  5.00000E-02 [y] snes_conv_reason:   11
  newton =   1 [      48] linear =   114 [      5600] cuts =  0 [   0]
  --> max chng: dpmx=   9.9536E-01 dtmpmx=   1.1689E-01

== TH FLOW =====================================================================
 Step     42 Time=  1.50000E+00 Dt=  5.00000E-02 [y] snes_conv_reason:   11
  newton =   1 [      49] linear =   107 [      5707] cuts =  0 [   0]
  --> max chng: dpmx=   9.5077E-01 dtmpmx=   1.1310E-01

== TH FLOW =====================================================================
 Step     43 Time=  1.55000E+00 Dt=  5.00000E-02 [y] snes_conv_reason:   11
  newton =   1 [      50] linear =   114 [      5821] cuts =  0 [   0]
  --> max chng: dpmx=   9.0676E-01 dtmpmx=   1.0961E-01

== TH FLOW =====================================================================
 Step     44 Time=  1.60000E+00 Dt=  5.00000E-02 [y] snes_conv_reason:   11
  newton =   1 [      51] linear =   112 [      5933] cuts =  0 [   0]
  --> max chng: dpmx=   9.1258E-01 dtmpmx=   1.0626E-01

== TH FLOW =====================================================================
 Step     45 Time=  1.65000E+00 Dt=  5.00000E-02 [y] snes_conv_reason:   11
  newton =   1 [      52] linear =   110 [      6043] cuts =  0 [   0]
  --> max chng: dpmx=   9.4190E-01 dtmpmx=   1.0315E-01

== TH FLOW =====================================================================
 Step     46 Time=  1.70000E+00 Dt=  5.00000E-02 [y] snes_conv_reason:   11
  newton =   1 [      53] linear =   115 [      6158] cuts =  0 [   0]
  --> max chng: dpmx=   9.7138E-01 dtmpmx=   1.0018E-01

== TH FLOW =====================================================================
 Step     47 Time=  1.75000E+00 Dt=  5.00000E-02 [y] snes_conv_reason:    3
  newton =   1 [      54] linear =   120 [      6278] cuts =  0 [   0]
  --> max chng: dpmx=   1.0010E+00 dtmpmx=   9.7382E-02

== TH FLOW =====================================================================
 Step     48 Time=  1.80000E+00 Dt=  5.00000E-02 [y] snes_conv_reason:    3
  newton =   1 [      55] linear =   118 [      6396] cuts =  0 [   0]
  --> max chng: dpmx=   1.0309E+00 dtmpmx=   9.4719E-02

== TH FLOW =====================================================================
 Step     49 Time=  1.85000E+00 Dt=  5.00000E-02 [y] snes_conv_reason:    3
  newton =   1 [      56] linear =   113 [      6509] cuts =  0 [   0]
  --> max chng: dpmx=   1.0607E+00 dtmpmx=   9.2196E-02

== TH FLOW =====================================================================
 Step     50 Time=  1.90000E+00 Dt=  5.00000E-02 [y] snes_conv_reason:    3
  newton =   1 [      57] linear =   113 [      6622] cuts =  0 [   0]
  --> max chng: dpmx=   1.0910E+00 dtmpmx=   8.9800E-02

== TH FLOW =====================================================================
 Step     51 Time=  1.95000E+00 Dt=  5.00000E-02 [y] snes_conv_reason:    3
  newton =   1 [      58] linear =   108 [      6730] cuts =  0 [   0]
  --> max chng: dpmx=   1.1209E+00 dtmpmx=   8.7509E-02

== TH FLOW =====================================================================
 Step     52 Time=  2.00000E+00 Dt=  5.00000E-02 [y] snes_conv_reason:    3
  newton =   1 [      59] linear =   110 [      6840] cuts =  0 [   0]
  --> max chng: dpmx=   1.1514E+00 dtmpmx=   8.5342E-02

== TH FLOW =====================================================================
 Step     53 Time=  2.05000E+00 Dt=  5.00000E-02 [y] snes_conv_reason:    3
  newton =   1 [      60] linear =   110 [      6950] cuts =  0 [   0]
  --> max chng: dpmx=   1.1820E+00 dtmpmx=   8.3254E-02

== TH FLOW =====================================================================
 Step     54 Time=  2.10000E+00 Dt=  5.00000E-02 [y] snes_conv_reason:    3
  newton =   1 [      61] linear =   108 [      7058] cuts =  0 [   0]
  --> max chng: dpmx=   1.2122E+00 dtmpmx=   8.1284E-02

== TH FLOW =====================================================================
 Step     55 Time=  2.15000E+00 Dt=  5.00000E-02 [y] snes_conv_reason:    3
  newton =   1 [      62] linear =   104 [      7162] cuts =  0 [   0]
  --> max chng: dpmx=   1.2426E+00 dtmpmx=   7.9373E-02

== TH FLOW =====================================================================
 Step     56 Time=  2.20000E+00 Dt=  5.00000E-02 [y] snes_conv_reason:    3
  newton =   1 [      63] linear =   111 [      7273] cuts =  0 [   0]
  --> max chng: dpmx=   1.2729E+00 dtmpmx=   7.7577E-02

== TH FLOW =====================================================================
 Step     57 Time=  2.25000E+00 Dt=  5.00000E-02 [y] snes_conv_reason:    3
  newton =   1 [      64] linear =   109 [      7382] cuts =  0 [   0]
  --> max chng: dpmx=   1.3031E+00 dtmpmx=   7.5827E-02

== TH FLOW =====================================================================
 Step     58 Time=  2.30000E+00 Dt=  5.00000E-02 [y] snes_conv_reason:    3
  newton =   1 [      65] linear =   104 [      7486] cuts =  0 [   0]
  --> max chng: dpmx=   1.3331E+00 dtmpmx=   7.4176E-02

== TH FLOW =====================================================================
 Step     59 Time=  2.35000E+00 Dt=  5.00000E-02 [y] snes_conv_reason:    3
  newton =   1 [      66] linear =   108 [      7594] cuts =  0 [   0]
  --> max chng: dpmx=   1.3626E+00 dtmpmx=   7.2572E-02

== TH FLOW =====================================================================
 Step     60 Time=  2.40000E+00 Dt=  5.00000E-02 [y] snes_conv_reason:    3
  newton =   1 [      67] linear =   110 [      7704] cuts =  0 [   0]
  --> max chng: dpmx=   1.3913E+00 dtmpmx=   7.1047E-02

== TH FLOW =====================================================================
 Step     61 Time=  2.45000E+00 Dt=  5.00000E-02 [y] snes_conv_reason:    3
  newton =   1 [      68] linear =   108 [      7812] cuts =  0 [   0]
  --> max chng: dpmx=   1.4194E+00 dtmpmx=   6.9572E-02

== TH FLOW =====================================================================
 Step     62 Time=  2.50000E+00 Dt=  5.00000E-02 [y] snes_conv_reason:    3
  newton =   1 [      69] linear =   114 [      7926] cuts =  0 [   0]
  --> max chng: dpmx=   1.4461E+00 dtmpmx=   6.8159E-02

== TH FLOW =====================================================================
 Step     63 Time=  2.55000E+00 Dt=  5.00000E-02 [y] snes_conv_reason:    3
  newton =   1 [      70] linear =   110 [      8036] cuts =  0 [   0]
  --> max chng: dpmx=   1.4714E+00 dtmpmx=   6.6798E-02

== TH FLOW =====================================================================
 Step     64 Time=  2.60000E+00 Dt=  5.00000E-02 [y] snes_conv_reason:    3
  newton =   1 [      71] linear =    96 [      8132] cuts =  0 [   0]
  --> max chng: dpmx=   1.4944E+00 dtmpmx=   6.5486E-02

== TH FLOW =====================================================================
 Step     65 Time=  2.65000E+00 Dt=  5.00000E-02 [y] snes_conv_reason:    3
  newton =   1 [      72] linear =   106 [      8238] cuts =  0 [   0]
  --> max chng: dpmx=   1.5152E+00 dtmpmx=   6.4228E-02

== TH FLOW =====================================================================
 Step     66 Time=  2.70000E+00 Dt=  5.00000E-02 [y] snes_conv_reason:    3
  newton =   1 [      73] linear =   110 [      8348] cuts =  0 [   0]
  --> max chng: dpmx=   1.5325E+00 dtmpmx=   6.3006E-02

== TH FLOW =====================================================================
 Step     67 Time=  2.75000E+00 Dt=  5.00000E-02 [y] snes_conv_reason:    3
  newton =   1 [      74] linear =   114 [      8462] cuts =  0 [   0]
  --> max chng: dpmx=   1.5457E+00 dtmpmx=   6.1839E-02

== TH FLOW =====================================================================
 Step     68 Time=  2.80000E+00 Dt=  5.00000E-02 [y] snes_conv_reason:    3
  newton =   1 [      75] linear =   106 [      8568] cuts =  0 [   0]
  --> max chng: dpmx=   1.5545E+00 dtmpmx=   6.0699E-02

== TH FLOW =====================================================================
 Step     69 Time=  2.85000E+00 Dt=  5.00000E-02 [y] snes_conv_reason:    3
  newton =   1 [      76] linear =   111 [      8679] cuts =  0 [   0]
  --> max chng: dpmx=   1.5575E+00 dtmpmx=   5.9614E-02

== TH FLOW =====================================================================
 Step     70 Time=  2.90000E+00 Dt=  5.00000E-02 [y] snes_conv_reason:    3
  newton =   1 [      77] linear =   113 [      8792] cuts =  0 [   0]
  --> max chng: dpmx=   1.5547E+00 dtmpmx=   5.8550E-02

== TH FLOW =====================================================================
 Step     71 Time=  2.95000E+00 Dt=  5.00000E-02 [y] snes_conv_reason:    3
  newton =   1 [      78] linear =   113 [      8905] cuts =  0 [   0]
  --> max chng: dpmx=   1.5447E+00 dtmpmx=   5.7538E-02

== TH FLOW =====================================================================
 Step     72 Time=  3.00000E+00 Dt=  5.00000E-02 [y] snes_conv_reason:    3
  newton =   1 [      79] linear =   109 [      9014] cuts =  0 [   0]
  --> max chng: dpmx=   1.5271E+00 dtmpmx=   5.6545E-02

== TH FLOW =====================================================================
 Step     73 Time=  3.05000E+00 Dt=  5.00000E-02 [y] snes_conv_reason:    3
  newton =   1 [      80] linear =   104 [      9118] cuts =  0 [   0]
  --> max chng: dpmx=   1.5018E+00 dtmpmx=   5.5595E-02

== TH FLOW =====================================================================
 Step     74 Time=  3.10000E+00 Dt=  5.00000E-02 [y] snes_conv_reason:    3
  newton =   1 [      81] linear =   111 [      9229] cuts =  0 [   0]
  --> max chng: dpmx=   1.4682E+00 dtmpmx=   5.4668E-02

== TH FLOW =====================================================================
 Step     75 Time=  3.15000E+00 Dt=  5.00000E-02 [y] snes_conv_reason:    3
  newton =   1 [      82] linear =   118 [      9347] cuts =  0 [   0]
  --> max chng: dpmx=   1.4259E+00 dtmpmx=   5.3775E-02

== TH FLOW =====================================================================
 Step     76 Time=  3.20000E+00 Dt=  5.00000E-02 [y] snes_conv_reason:    3
  newton =   1 [      83] linear =   112 [      9459] cuts =  0 [   0]
  --> max chng: dpmx=   1.3754E+00 dtmpmx=   5.2907E-02

== TH FLOW =====================================================================
 Step     77 Time=  3.25000E+00 Dt=  5.00000E-02 [y] snes_conv_reason:    3
  newton =   1 [      84] linear =   114 [      9573] cuts =  0 [   0]
  --> max chng: dpmx=   1.3174E+00 dtmpmx=   5.2065E-02

== TH FLOW =====================================================================
 Step     78 Time=  3.30000E+00 Dt=  5.00000E-02 [y] snes_conv_reason:    3
  newton =   1 [      85] linear =   113 [      9686] cuts =  0 [   0]
  --> max chng: dpmx=   1.2522E+00 dtmpmx=   5.1252E-02

== TH FLOW =====================================================================
 Step     79 Time=  3.35000E+00 Dt=  5.00000E-02 [y] snes_conv_reason:    3
  newton =   1 [      86] linear =   113 [      9799] cuts =  0 [   0]
  --> max chng: dpmx=   1.1806E+00 dtmpmx=   5.0457E-02

== TH FLOW =====================================================================
 Step     80 Time=  3.40000E+00 Dt=  5.00000E-02 [y] snes_conv_reason:    3
  newton =   1 [      87] linear =   116 [      9915] cuts =  0 [   0]
  --> max chng: dpmx=   1.1042E+00 dtmpmx=   4.9693E-02

== TH FLOW =====================================================================
 Step     81 Time=  3.45000E+00 Dt=  5.00000E-02 [y] snes_conv_reason:    3
  newton =   1 [      88] linear =   112 [     10027] cuts =  0 [   0]
  --> max chng: dpmx=   1.0239E+00 dtmpmx=   4.8942E-02

== TH FLOW =====================================================================
 Step     82 Time=  3.50000E+00 Dt=  5.00000E-02 [y] snes_conv_reason:   11
  newton =   1 [      89] linear =   111 [     10138] cuts =  0 [   0]
  --> max chng: dpmx=   9.4144E-01 dtmpmx=   4.8224E-02

== TH FLOW =====================================================================
 Step     83 Time=  3.55000E+00 Dt=  5.00000E-02 [y] snes_conv_reason:   11
  newton =   1 [      90] linear =   115 [     10253] cuts =  0 [   0]
  --> max chng: dpmx=   8.5758E-01 dtmpmx=   4.7352E-02

== TH FLOW =====================================================================
 Step     84 Time=  3.60000E+00 Dt=  5.00000E-02 [y] snes_conv_reason:   11
  newton =   1 [      91] linear =   117 [     10370] cuts =  0 [   0]
  --> max chng: dpmx=   7.7472E-01 dtmpmx=   4.5910E-02

== TH FLOW =====================================================================
 Step     85 Time=  3.65000E+00 Dt=  5.00000E-02 [y] snes_conv_reason:   11
  newton =   1 [      92] linear =   118 [     10488] cuts =  0 [   0]
  --> max chng: dpmx=   6.9330E-01 dtmpmx=   4.4076E-02

== TH FLOW =====================================================================
 Step     86 Time=  3.70000E+00 Dt=  5.00000E-02 [y] snes_conv_reason:   11
  newton =   1 [      93] linear =   119 [     10607] cuts =  0 [   0]
  --> max chng: dpmx=   6.1490E-01 dtmpmx=   4.1806E-02

== TH FLOW =====================================================================
 Step     87 Time=  3.75000E+00 Dt=  5.00000E-02 [y] snes_conv_reason:   11
  newton =   1 [      94] linear =   116 [     10723] cuts =  0 [   0]
  --> max chng: dpmx=   5.4043E-01 dtmpmx=   3.9162E-02

== TH FLOW =====================================================================
 Step     88 Time=  3.80000E+00 Dt=  5.00000E-02 [y] snes_conv_reason:   11
  newton =   1 [      95] linear =   120 [     10843] cuts =  0 [   0]
  --> max chng: dpmx=   4.7063E-01 dtmpmx=   3.6242E-02

== TH FLOW =====================================================================
 Step     89 Time=  3.85000E+00 Dt=  5.00000E-02 [y] snes_conv_reason:   11
  newton =   1 [      96] linear =   116 [     10959] cuts =  0 [   0]
  --> max chng: dpmx=   4.0619E-01 dtmpmx=   3.3145E-02

== TH FLOW =====================================================================
 Step     90 Time=  3.90000E+00 Dt=  5.00000E-02 [y] snes_conv_reason:   11
  newton =   1 [      97] linear =   119 [     11078] cuts =  0 [   0]
  --> max chng: dpmx=   3.4738E-01 dtmpmx=   2.9963E-02

== TH FLOW =====================================================================
 Step     91 Time=  3.95000E+00 Dt=  5.00000E-02 [y] snes_conv_reason:   11
  newton =   1 [      98] linear =   118 [     11196] cuts =  0 [   0]
  --> max chng: dpmx=   2.9445E-01 dtmpmx=   2.6782E-02

== TH FLOW =====================================================================
 Step     92 Time=  4.00000E+00 Dt=  5.00000E-02 [y] snes_conv_reason:   11
  newton =   1 [      99] linear =   117 [     11313] cuts =  0 [   0]
  --> max chng: dpmx=   2.4736E-01 dtmpmx=   2.3677E-02

== TH FLOW =====================================================================
 Step     93 Time=  4.05000E+00 Dt=  5.00000E-02 [y] snes_conv_reason:   11
  newton =   1 [     100] linear =   121 [     11434] cuts =  0 [   0]
  --> max chng: dpmx=   2.0594E-01 dtmpmx=   2.0708E-02

== TH FLOW =====================================================================
 Step     94 Time=  4.10000E+00 Dt=  5.00000E-02 [y] snes_conv_reason:   11
  newton =   1 [     101] linear =   120 [     11554] cuts =  0 [   0]
  --> max chng: dpmx=   1.6998E-01 dtmpmx=   1.7922E-02

== TH FLOW =====================================================================
 Step     95 Time=  4.15000E+00 Dt=  5.00000E-02 [y] snes_conv_reason:   11
  newton =   1 [     102] linear =   122 [     11676] cuts =  0 [   0]
  --> max chng: dpmx=   1.3907E-01 dtmpmx=   1.5352E-02

== TH FLOW =====================================================================
 Step     96 Time=  4.20000E+00 Dt=  5.00000E-02 [y] snes_conv_reason:   11
  newton =   1 [     103] linear =   121 [     11797] cuts =  0 [   0]
  --> max chng: dpmx=   1.1280E-01 dtmpmx=   1.3019E-02

== TH FLOW =====================================================================
 Step     97 Time=  4.25000E+00 Dt=  5.00000E-02 [y] snes_conv_reason:   11
  newton =   1 [     104] linear =   122 [     11919] cuts =  0 [   0]
  --> max chng: dpmx=   9.0696E-02 dtmpmx=   1.0933E-02

== TH FLOW =====================================================================
 Step     98 Time=  4.30000E+00 Dt=  5.00000E-02 [y] snes_conv_reason:   11
  newton =   1 [     105] linear =   122 [     12041] cuts =  0 [   0]
  --> max chng: dpmx=   7.2278E-02 dtmpmx=   9.0918E-03

== TH FLOW =====================================================================
 Step     99 Time=  4.35000E+00 Dt=  5.00000E-02 [y] snes_conv_reason:   11
  newton =   1 [     106] linear =   122 [     12163] cuts =  0 [   0]
  --> max chng: dpmx=   5.7114E-02 dtmpmx=   7.4892E-03

== TH FLOW =====================================================================
 Step    100 Time=  4.40000E+00 Dt=  5.00000E-02 [y] snes_conv_reason:   11
  newton =   1 [     107] linear =   122 [     12285] cuts =  0 [   0]
  --> max chng: dpmx=   4.4731E-02 dtmpmx=   6.1113E-03

== TH FLOW =====================================================================
 Step    101 Time=  4.45000E+00 Dt=  5.00000E-02 [y] snes_conv_reason:   11
  newton =   1 [     108] linear =   121 [     12406] cuts =  0 [   0]
  --> max chng: dpmx=   3.4712E-02 dtmpmx=   4.9406E-03

== TH FLOW =====================================================================
 Step    102 Time=  4.50000E+00 Dt=  5.00000E-02 [y] snes_conv_reason:   11
  newton =   1 [     109] linear =   125 [     12531] cuts =  0 [   0]
  --> max chng: dpmx=   2.6703E-02 dtmpmx=   3.9573E-03

== TH FLOW =====================================================================
 Step    103 Time=  4.55000E+00 Dt=  5.00000E-02 [y] snes_conv_reason:   11
  newton =   1 [     110] linear =   124 [     12655] cuts =  0 [   0]
  --> max chng: dpmx=   2.0339E-02 dtmpmx=   3.1403E-03

== TH FLOW =====================================================================
 Step    104 Time=  4.60000E+00 Dt=  5.00000E-02 [y] snes_conv_reason:   11
  newton =   1 [     111] linear =   128 [     12783] cuts =  0 [   0]
  --> max chng: dpmx=   1.5345E-02 dtmpmx=   2.4688E-03

== TH FLOW =====================================================================
 Step    105 Time=  4.65000E+00 Dt=  5.00000E-02 [y] snes_conv_reason:   11
  newton =   1 [     112] linear =   124 [     12907] cuts =  0 [   0]
  --> max chng: dpmx=   1.1444E-02 dtmpmx=   1.9225E-03

== TH FLOW =====================================================================
 Step    106 Time=  4.70000E+00 Dt=  5.00000E-02 [y] snes_conv_reason:   11
  newton =   1 [     113] linear =   123 [     13030] cuts =  0 [   0]
  --> max chng: dpmx=   8.4408E-03 dtmpmx=   1.4823E-03

== TH FLOW =====================================================================
 Step    107 Time=  4.75000E+00 Dt=  5.00000E-02 [y] snes_conv_reason:   11
  newton =   1 [     114] linear =   124 [     13154] cuts =  0 [   0]
  --> max chng: dpmx=   6.1439E-03 dtmpmx=   1.1312E-03

== TH FLOW =====================================================================
 Step    108 Time=  4.80000E+00 Dt=  5.00000E-02 [y] snes_conv_reason:   11
  newton =   1 [     115] linear =   125 [     13279] cuts =  0 [   0]
  --> max chng: dpmx=   4.4063E-03 dtmpmx=   8.5365E-04

== TH FLOW =====================================================================
 Step    109 Time=  4.85000E+00 Dt=  5.00000E-02 [y] snes_conv_reason:   11
  newton =   1 [     116] linear =   125 [     13404] cuts =  0 [   0]
  --> max chng: dpmx=   3.1071E-03 dtmpmx=   6.3627E-04

== TH FLOW =====================================================================
 Step    110 Time=  4.90000E+00 Dt=  5.00000E-02 [y] snes_conv_reason:   11
  newton =   1 [     117] linear =   121 [     13525] cuts =  0 [   0]
  --> max chng: dpmx=   2.1460E-03 dtmpmx=   4.6753E-04

== TH FLOW =====================================================================
 Step    111 Time=  4.95000E+00 Dt=  5.00000E-02 [y] snes_conv_reason:   11
  newton =   1 [     118] linear =   122 [     13647] cuts =  0 [   0]
  --> max chng: dpmx=   1.4456E-03 dtmpmx=   3.3766E-04

== TH FLOW =====================================================================
 Step    112 Time=  5.00000E+00 Dt=  5.00000E-02 [y] snes_conv_reason:   11
  newton =   1 [     119] linear =   123 [     13770] cuts =  0 [   0]
  --> max chng: dpmx=   1.6150E-03 dtmpmx=   2.3854E-04

== TH FLOW =====================================================================
 Step    113 Time=  5.05000E+00 Dt=  5.00000E-02 [y] snes_conv_reason:   11
  newton =   1 [     120] linear =   119 [     13889] cuts =  0 [   0]
  --> max chng: dpmx=   1.8024E-03 dtmpmx=   1.6352E-04

== TH FLOW =====================================================================
 Step    114 Time=  5.10000E+00 Dt=  5.00000E-02 [y] snes_conv_reason:   11
  newton =   1 [     121] linear =   115 [     14004] cuts =  0 [   0]
  --> max chng: dpmx=   1.9362E-03 dtmpmx=   1.0717E-04

== TH FLOW =====================================================================
 Step    115 Time=  5.15000E+00 Dt=  5.00000E-02 [y] snes_conv_reason:   11
  newton =   1 [     122] linear =   121 [     14125] cuts =  0 [   0]
  --> max chng: dpmx=   2.0266E-03 dtmpmx=   6.5173E-05

== TH FLOW =====================================================================
 Step    116 Time=  5.20000E+00 Dt=  5.00000E-02 [y] snes_conv_reason:   11
  newton =   1 [     123] linear =   112 [     14237] cuts =  0 [   0]
  --> max chng: dpmx=   2.0827E-03 dtmpmx=   4.8063E-05

== TH FLOW =====================================================================
 Step    117 Time=  5.25000E+00 Dt=  5.00000E-02 [y] snes_conv_reason:   11
  newton =   1 [     124] linear =   115 [     14352] cuts =  0 [   0]
  --> max chng: dpmx=   2.1126E-03 dtmpmx=   4.7874E-05

== TH FLOW =====================================================================
 Step    118 Time=  5.30000E+00 Dt=  5.00000E-02 [y] snes_conv_reason:   11
  newton =   1 [     125] linear =   110 [     14462] cuts =  0 [   0]
  --> max chng: dpmx=   2.1216E-03 dtmpmx=   4.7680E-05

== TH FLOW =====================================================================
 Step    119 Time=  5.35000E+00 Dt=  5.00000E-02 [y] snes_conv_reason:   11
  newton =   1 [     126] linear =   111 [     14573] cuts =  0 [   0]
  --> max chng: dpmx=   2.1142E-03 dtmpmx=   4.7484E-05

== TH FLOW =====================================================================
 Step    120 Time=  5.40000E+00 Dt=  5.00000E-02 [y] snes_conv_reason:   11
  newton =   1 [     127] linear =   110 [     14683] cuts =  0 [   0]
  --> max chng: dpmx=   2.0948E-03 dtmpmx=   4.7284E-05

== TH FLOW =====================================================================
 Step    121 Time=  5.45000E+00 Dt=  5.00000E-02 [y] snes_conv_reason:   11
  newton =   1 [     128] linear =   110 [     14793] cuts =  0 [   0]
  --> max chng: dpmx=   2.0653E-03 dtmpmx=   4.7081E-05

== TH FLOW =====================================================================
 Step    122 Time=  5.50000E+00 Dt=  5.00000E-02 [y] snes_conv_reason:   11
  newton =   1 [     129] linear =   106 [     14899] cuts =  0 [   0]
  --> max chng: dpmx=   2.0281E-03 dtmpmx=   4.6873E-05

== TH FLOW =====================================================================
 Step    123 Time=  5.55000E+00 Dt=  5.00000E-02 [y] snes_conv_reason:   11
  newton =   1 [     130] linear =   107 [     15006] cuts =  0 [   0]
  --> max chng: dpmx=   1.9848E-03 dtmpmx=   4.6663E-05

== TH FLOW =====================================================================
 Step    124 Time=  5.60000E+00 Dt=  5.00000E-02 [y] snes_conv_reason:   11
  newton =   1 [     131] linear =   104 [     15110] cuts =  0 [   0]
  --> max chng: dpmx=   1.9359E-03 dtmpmx=   4.6446E-05

== TH FLOW =====================================================================
 Step    125 Time=  5.65000E+00 Dt=  5.00000E-02 [y] snes_conv_reason:   11
  newton =   1 [     132] linear =   102 [     15212] cuts =  0 [   0]
  --> max chng: dpmx=   1.8830E-03 dtmpmx=   4.6228E-05

== TH FLOW =====================================================================
 Step    126 Time=  5.70000E+00 Dt=  5.00000E-02 [y] snes_conv_reason:   11
  newton =   1 [     133] linear =   108 [     15320] cuts =  0 [   0]
  --> max chng: dpmx=   1.8265E-03 dtmpmx=   4.6006E-05

== TH FLOW =====================================================================
 Step    127 Time=  5.75000E+00 Dt=  5.00000E-02 [y] snes_conv_reason:   11
  newton =   1 [     134] linear =   108 [     15428] cuts =  0 [   0]
  --> max chng: dpmx=   1.7671E-03 dtmpmx=   4.5778E-05

== TH FLOW =====================================================================
 Step    128 Time=  5.80000E+00 Dt=  5.00000E-02 [y] snes_conv_reason:   11
  newton =   1 [     135] linear =   108 [     15536] cuts =  0 [   0]
  --> max chng: dpmx=   1.7047E-03 dtmpmx=   4.5548E-05

== TH FLOW =====================================================================
 Step    129 Time=  5.85000E+00 Dt=  5.00000E-02 [y] snes_conv_reason:   11
  newton =   1 [     136] linear =    99 [     15635] cuts =  0 [   0]
  --> max chng: dpmx=   1.6401E-03 dtmpmx=   4.5315E-05

== TH FLOW =====================================================================
 Step    130 Time=  5.90000E+00 Dt=  5.00000E-02 [y] snes_conv_reason:   11
  newton =   1 [     137] linear =   102 [     15737] cuts =  0 [   0]
  --> max chng: dpmx=   1.5743E-03 dtmpmx=   4.5040E-05

== TH FLOW =====================================================================
 Step    131 Time=  5.95000E+00 Dt=  5.00000E-02 [y] snes_conv_reason:   11
  newton =   1 [     138] linear =   106 [     15843] cuts =  0 [   0]
  --> max chng: dpmx=   1.5065E-03 dtmpmx=   4.4615E-05

== TH FLOW =====================================================================
 Step    132 Time=  6.00000E+00 Dt=  5.00000E-02 [y] snes_conv_reason:   11
  newton =   1 [     139] linear =   111 [     15954] cuts =  0 [   0]
  --> max chng: dpmx=   1.4380E-03 dtmpmx=   4.4046E-05

== TH FLOW =====================================================================
 Step    133 Time=  6.05000E+00 Dt=  5.00000E-02 [y] snes_conv_reason:   11
  newton =   1 [     140] linear =   108 [     16062] cuts =  0 [   0]
  --> max chng: dpmx=   1.3684E-03 dtmpmx=   4.3346E-05

== TH FLOW =====================================================================
 Step    134 Time=  6.10000E+00 Dt=  5.00000E-02 [y] snes_conv_reason:   11
  newton =   1 [     141] linear =   108 [     16170] cuts =  0 [   0]
  --> max chng: dpmx=   1.2987E-03 dtmpmx=   4.2522E-05

== TH FLOW =====================================================================
 Step    135 Time=  6.15000E+00 Dt=  5.00000E-02 [y] snes_conv_reason:   11
  newton =   1 [     142] linear =   110 [     16280] cuts =  0 [   0]
  --> max chng: dpmx=   1.2282E-03 dtmpmx=   4.1581E-05

== TH FLOW =====================================================================
 Step    136 Time=  6.20000E+00 Dt=  5.00000E-02 [y] snes_conv_reason:   11
  newton =   1 [     143] linear =   113 [     16393] cuts =  0 [   0]
  --> max chng: dpmx=   1.1587E-03 dtmpmx=   4.0530E-05

== TH FLOW =====================================================================
 Step    137 Time=  6.25000E+00 Dt=  5.00000E-02 [y] snes_conv_reason:   11
  newton =   1 [     144] linear =   112 [     16505] cuts =  0 [   0]
  --> max chng: dpmx=   1.0893E-03 dtmpmx=   3.9392E-05

== TH FLOW =====================================================================
 Step    138 Time=  6.30000E+00 Dt=  5.00000E-02 [y] snes_conv_reason:   11
  newton =   1 [     145] linear =   109 [     16614] cuts =  0 [   0]
  --> max chng: dpmx=   1.0210E-03 dtmpmx=   3.8177E-05

== TH FLOW =====================================================================
 Step    139 Time=  6.35000E+00 Dt=  5.00000E-02 [y] snes_conv_reason:   11
  newton =   1 [     146] linear =   115 [     16729] cuts =  0 [   0]
  --> max chng: dpmx=   9.5358E-04 dtmpmx=   3.6871E-05

== TH FLOW =====================================================================
 Step    140 Time=  6.40000E+00 Dt=  5.00000E-02 [y] snes_conv_reason:   11
  newton =   1 [     147] linear =   114 [     16843] cuts =  0 [   0]
  --> max chng: dpmx=   8.8776E-04 dtmpmx=   3.5484E-05

== TH FLOW =====================================================================
 Step    141 Time=  6.45000E+00 Dt=  5.00000E-02 [y] snes_conv_reason:   11
  newton =   1 [     148] linear =   114 [     16957] cuts =  0 [   0]
  --> max chng: dpmx=   8.2374E-04 dtmpmx=   3.4024E-05

== TH FLOW =====================================================================
 Step    142 Time=  6.50000E+00 Dt=  5.00000E-02 [y] snes_conv_reason:   11
  newton =   1 [     149] linear =   112 [     17069] cuts =  0 [   0]
  --> max chng: dpmx=   7.6167E-04 dtmpmx=   3.2503E-05

== TH FLOW =====================================================================
 Step    143 Time=  6.55000E+00 Dt=  5.00000E-02 [y] snes_conv_reason:   11
  newton =   1 [     150] linear =   112 [     17181] cuts =  0 [   0]
  --> max chng: dpmx=   7.0165E-04 dtmpmx=   3.0931E-05

== TH FLOW =====================================================================
 Step    144 Time=  6.60000E+00 Dt=  5.00000E-02 [y] snes_conv_reason:   11
  newton =   1 [     151] linear =   116 [     17297] cuts =  0 [   0]
  --> max chng: dpmx=   6.4422E-04 dtmpmx=   2.9320E-05

== TH FLOW =====================================================================
 Step    145 Time=  6.65000E+00 Dt=  5.00000E-02 [y] snes_conv_reason:   11
  newton =   1 [     152] linear =   117 [     17414] cuts =  0 [   0]
  --> max chng: dpmx=   5.8899E-04 dtmpmx=   2.7682E-05

== TH FLOW =====================================================================
 Step    146 Time=  6.70000E+00 Dt=  5.00000E-02 [y] snes_conv_reason:   11
  newton =   1 [     153] linear =   115 [     17529] cuts =  0 [   0]
  --> max chng: dpmx=   5.3682E-04 dtmpmx=   2.6030E-05

== TH FLOW =====================================================================
 Step    147 Time=  6.75000E+00 Dt=  5.00000E-02 [y] snes_conv_reason:   11
  newton =   1 [     154] linear =   114 [     17643] cuts =  0 [   0]
  --> max chng: dpmx=   4.8721E-04 dtmpmx=   2.4375E-05

== TH FLOW =====================================================================
 Step    148 Time=  6.80000E+00 Dt=  5.00000E-02 [y] snes_conv_reason:   11
  newton =   1 [     155] linear =   117 [     17760] cuts =  0 [   0]
  --> max chng: dpmx=   4.4050E-04 dtmpmx=   2.2729E-05

== TH FLOW =====================================================================
 Step    149 Time=  6.85000E+00 Dt=  5.00000E-02 [y] snes_conv_reason:   11
  newton =   1 [     156] linear =   118 [     17878] cuts =  0 [   0]
  --> max chng: dpmx=   3.9680E-04 dtmpmx=   2.1104E-05

== TH FLOW =====================================================================
 Step    150 Time=  6.90000E+00 Dt=  5.00000E-02 [y] snes_conv_reason:   11
  newton =   1 [     157] linear =   113 [     17991] cuts =  0 [   0]
  --> max chng: dpmx=   3.5602E-04 dtmpmx=   1.9511E-05

== TH FLOW =====================================================================
 Step    151 Time=  6.95000E+00 Dt=  5.00000E-02 [y] snes_conv_reason:   11
  newton =   1 [     158] linear =   119 [     18110] cuts =  0 [   0]
  --> max chng: dpmx=   3.1808E-04 dtmpmx=   1.7960E-05

== TH FLOW =====================================================================
 Step    152 Time=  7.00000E+00 Dt=  5.00000E-02 [y] snes_conv_reason:   11
  newton =   1 [     159] linear =   119 [     18229] cuts =  0 [   0]
  --> max chng: dpmx=   2.8301E-04 dtmpmx=   1.6459E-05

== TH FLOW =====================================================================
 Step    153 Time=  7.05000E+00 Dt=  5.00000E-02 [y] snes_conv_reason:   11
  newton =   1 [     160] linear =   120 [     18349] cuts =  0 [   0]
  --> max chng: dpmx=   2.5080E-04 dtmpmx=   1.5016E-05

== TH FLOW =====================================================================
 Step    154 Time=  7.10000E+00 Dt=  5.00000E-02 [y] snes_conv_reason:   11
  newton =   1 [     161] linear =   119 [     18468] cuts =  0 [   0]
  --> max chng: dpmx=   2.2134E-04 dtmpmx=   1.3638E-05

== TH FLOW =====================================================================
 Step    155 Time=  7.15000E+00 Dt=  5.00000E-02 [y] snes_conv_reason:   11
  newton =   1 [     162] linear =   118 [     18586] cuts =  0 [   0]
  --> max chng: dpmx=   1.9448E-04 dtmpmx=   1.2330E-05

== TH FLOW =====================================================================
 Step    156 Time=  7.20000E+00 Dt=  5.00000E-02 [y] snes_conv_reason:   11
  newton =   1 [     163] linear =   119 [     18705] cuts =  0 [   0]
  --> max chng: dpmx=   1.7020E-04 dtmpmx=   1.1096E-05

== TH FLOW =====================================================================
 Step    157 Time=  7.25000E+00 Dt=  5.00000E-02 [y] snes_conv_reason:   11
  newton =   1 [     164] linear =   118 [     18823] cuts =  0 [   0]
  --> max chng: dpmx=   1.4822E-04 dtmpmx=   9.9402E-06

== TH FLOW =====================================================================
 Step    158 Time=  7.30000E+00 Dt=  5.00000E-02 [y] snes_conv_reason:   11
  newton =   1 [     165] linear =   119 [     18942] cuts =  0 [   0]
  --> max chng: dpmx=   1.2855E-04 dtmpmx=   8.8629E-06

== TH FLOW =====================================================================
 Step    159 Time=  7.35000E+00 Dt=  5.00000E-02 [y] snes_conv_reason:   11
  newton =   1 [     166] linear =   120 [     19062] cuts =  0 [   0]
  --> max chng: dpmx=   1.1097E-04 dtmpmx=   7.8652E-06

== TH FLOW =====================================================================
 Step    160 Time=  7.40000E+00 Dt=  5.00000E-02 [y] snes_conv_reason:   11
  newton =   1 [     167] linear =   120 [     19182] cuts =  0 [   0]
  --> max chng: dpmx=   9.5342E-05 dtmpmx=   6.9465E-06

== TH FLOW =====================================================================
 Step    161 Time=  7.45000E+00 Dt=  5.00000E-02 [y] snes_conv_reason:   11
  newton =   1 [     168] linear =   119 [     19301] cuts =  0 [   0]
  --> max chng: dpmx=   8.1524E-05 dtmpmx=   6.1057E-06

== TH FLOW =====================================================================
 Step    162 Time=  7.50000E+00 Dt=  5.00000E-02 [y] snes_conv_reason:   11
  newton =   1 [     169] linear =   120 [     19421] cuts =  0 [   0]
  --> max chng: dpmx=   6.9373E-05 dtmpmx=   5.3405E-06

== TH FLOW =====================================================================
 Step    163 Time=  7.55000E+00 Dt=  5.00000E-02 [y] snes_conv_reason:   11
  newton =   1 [     170] linear =   122 [     19543] cuts =  0 [   0]
  --> max chng: dpmx=   5.8733E-05 dtmpmx=   4.6481E-06

== TH FLOW =====================================================================
 Step    164 Time=  7.60000E+00 Dt=  5.00000E-02 [y] snes_conv_reason:   11
  newton =   1 [     171] linear =   120 [     19663] cuts =  0 [   0]
  --> max chng: dpmx=   4.9452E-05 dtmpmx=   4.0251E-06

== TH FLOW =====================================================================
 Step    165 Time=  7.65000E+00 Dt=  5.00000E-02 [y] snes_conv_reason:   11
  newton =   1 [     172] linear =   118 [     19781] cuts =  0 [   0]
  --> max chng: dpmx=   4.1404E-05 dtmpmx=   3.4676E-06

== TH FLOW =====================================================================
 Step    166 Time=  7.70000E+00 Dt=  5.00000E-02 [y] snes_conv_reason:   11
  newton =   1 [     173] linear =   122 [     19903] cuts =  0 [   0]
  --> max chng: dpmx=   3.4476E-05 dtmpmx=   2.9717E-06

== TH FLOW =====================================================================
 Step    167 Time=  7.75000E+00 Dt=  5.00000E-02 [y] snes_conv_reason:   11
  newton =   1 [     174] linear =   122 [     20025] cuts =  0 [   0]
  --> max chng: dpmx=   2.8525E-05 dtmpmx=   2.5329E-06

== TH FLOW =====================================================================
 Step    168 Time=  7.80000E+00 Dt=  5.00000E-02 [y] snes_conv_reason:   11
  newton =   1 [     175] linear =   122 [     20147] cuts =  0 [   0]
  --> max chng: dpmx=   2.3445E-05 dtmpmx=   2.1468E-06

== TH FLOW =====================================================================
 Step    169 Time=  7.85000E+00 Dt=  5.00000E-02 [y] snes_conv_reason:   11
  newton =   1 [     176] linear =   121 [     20268] cuts =  0 [   0]
  --> max chng: dpmx=   1.9131E-05 dtmpmx=   1.8088E-06

== TH FLOW =====================================================================
 Step    170 Time=  7.90000E+00 Dt=  5.00000E-02 [y] snes_conv_reason:   11
  newton =   1 [     177] linear =   124 [     20392] cuts =  0 [   0]
  --> max chng: dpmx=   1.5493E-05 dtmpmx=   1.5146E-06

== TH FLOW =====================================================================
 Step    171 Time=  7.95000E+00 Dt=  5.00000E-02 [y] snes_conv_reason:   11
  newton =   1 [     178] linear =   127 [     20519] cuts =  0 [   0]
  --> max chng: dpmx=   1.2440E-05 dtmpmx=   1.2600E-06

== TH FLOW =====================================================================
 Step    172 Time=  8.00000E+00 Dt=  5.00000E-02 [y] snes_conv_reason:   11
  newton =   1 [     179] linear =   126 [     20645] cuts =  0 [   0]
  --> max chng: dpmx=   9.8938E-06 dtmpmx=   1.0407E-06

== TH FLOW =====================================================================
 Step    173 Time=  8.05000E+00 Dt=  5.00000E-02 [y] snes_conv_reason:   11
  newton =   1 [     180] linear =   122 [     20767] cuts =  0 [   0]
  --> max chng: dpmx=   7.7807E-06 dtmpmx=   8.5291E-07

== TH FLOW =====================================================================
 Step    174 Time=  8.10000E+00 Dt=  5.00000E-02 [y] snes_conv_reason:   11
  newton =   1 [     181] linear =   123 [     20890] cuts =  0 [   0]
  --> max chng: dpmx=   6.0466E-06 dtmpmx=   6.9301E-07

== TH FLOW =====================================================================
 Step    175 Time=  8.15000E+00 Dt=  5.00000E-02 [y] snes_conv_reason:   11
  newton =   1 [     182] linear =   127 [     21017] cuts =  0 [   0]
  --> max chng: dpmx=   4.6312E-06 dtmpmx=   5.5765E-07

== TH FLOW =====================================================================
 Step    176 Time=  8.20000E+00 Dt=  5.00000E-02 [y] snes_conv_reason:   11
  newton =   1 [     183] linear =   121 [     21138] cuts =  0 [   0]
  --> max chng: dpmx=   3.4897E-06 dtmpmx=   4.4354E-07

== TH FLOW =====================================================================
 Step    177 Time=  8.25000E+00 Dt=  5.00000E-02 [y] snes_conv_reason:   11
  newton =   1 [     184] linear =   122 [     21260] cuts =  0 [   0]
  --> max chng: dpmx=   2.5764E-06 dtmpmx=   3.4810E-07

== TH FLOW =====================================================================
 Step    178 Time=  8.30000E+00 Dt=  5.00000E-02 [y] snes_conv_reason:   11
  newton =   1 [     185] linear =   123 [     21383] cuts =  0 [   0]
  --> max chng: dpmx=   1.8578E-06 dtmpmx=   2.6862E-07

== TH FLOW =====================================================================
 Step    179 Time=  8.35000E+00 Dt=  5.00000E-02 [y] snes_conv_reason:   11
  newton =   1 [     186] linear =   123 [     21506] cuts =  0 [   0]
  --> max chng: dpmx=   1.3008E-06 dtmpmx=   2.0288E-07

== TH FLOW =====================================================================
 Step    180 Time=  8.40000E+00 Dt=  5.00000E-02 [y] snes_conv_reason:   11
  newton =   1 [     187] linear =   120 [     21626] cuts =  0 [   0]
  --> max chng: dpmx=   1.3896E-06 dtmpmx=   1.4892E-07

== TH FLOW =====================================================================
 Step    181 Time=  8.45000E+00 Dt=  5.00000E-02 [y] snes_conv_reason:   11
  newton =   1 [     188] linear =   125 [     21751] cuts =  0 [   0]
  --> max chng: dpmx=   1.5696E-06 dtmpmx=   1.0479E-07

== TH FLOW =====================================================================
 Step    182 Time=  8.50000E+00 Dt=  5.00000E-02 [y] snes_conv_reason:   11
  newton =   1 [     189] linear =   121 [     21872] cuts =  0 [   0]
  --> max chng: dpmx=   1.6992E-06 dtmpmx=   6.9123E-08

== TH FLOW =====================================================================
 Step    183 Time=  8.55000E+00 Dt=  5.00000E-02 [y] snes_conv_reason:   11
  newton =   1 [     190] linear =   117 [     21989] cuts =  0 [   0]
  --> max chng: dpmx=   1.7851E-06 dtmpmx=   5.3335E-08

== TH FLOW =====================================================================
 Step    184 Time=  8.60000E+00 Dt=  5.00000E-02 [y] snes_conv_reason:   11
  newton =   1 [     191] linear =   114 [     22103] cuts =  0 [   0]
  --> max chng: dpmx=   1.8345E-06 dtmpmx=   5.2758E-08

== TH FLOW =====================================================================
 Step    185 Time=  8.65000E+00 Dt=  5.00000E-02 [y] snes_conv_reason:   11
  newton =   1 [     192] linear =   114 [     22217] cuts =  0 [   0]
  --> max chng: dpmx=   1.8529E-06 dtmpmx=   5.2130E-08

== TH FLOW =====================================================================
 Step    186 Time=  8.70000E+00 Dt=  5.00000E-02 [y] snes_conv_reason:   11
  newton =   1 [     193] linear =   115 [     22332] cuts =  0 [   0]
  --> max chng: dpmx=   1.8461E-06 dtmpmx=   5.1557E-08

== TH FLOW =====================================================================
 Step    187 Time=  8.75000E+00 Dt=  5.00000E-02 [y] snes_conv_reason:   11
  newton =   1 [     194] linear =   115 [     22447] cuts =  0 [   0]
  --> max chng: dpmx=   1.8197E-06 dtmpmx=   5.1001E-08

== TH FLOW =====================================================================
 Step    188 Time=  8.80000E+00 Dt=  5.00000E-02 [y] snes_conv_reason:   11
  newton =   1 [     195] linear =   112 [     22559] cuts =  0 [   0]
  --> max chng: dpmx=   1.7773E-06 dtmpmx=   5.0443E-08

== TH FLOW =====================================================================
 Step    189 Time=  8.85000E+00 Dt=  5.00000E-02 [y] snes_conv_reason:   11
  newton =   1 [     196] linear =   114 [     22673] cuts =  0 [   0]
  --> max chng: dpmx=   1.7228E-06 dtmpmx=   4.9894E-08

== TH FLOW =====================================================================
 Step    190 Time=  8.90000E+00 Dt=  5.00000E-02 [y] snes_conv_reason:   11
  newton =   1 [     197] linear =   113 [     22786] cuts =  0 [   0]
  --> max chng: dpmx=   1.6597E-06 dtmpmx=   4.9328E-08

== TH FLOW =====================================================================
 Step    191 Time=  8.95000E+00 Dt=  5.00000E-02 [y] snes_conv_reason:   11
  newton =   1 [     198] linear =   109 [     22895] cuts =  0 [   0]
  --> max chng: dpmx=   1.5899E-06 dtmpmx=   4.8763E-08

== TH FLOW =====================================================================
 Step    192 Time=  9.00000E+00 Dt=  5.00000E-02 [y] snes_conv_reason:   11
  newton =   1 [     199] linear =   108 [     23003] cuts =  0 [   0]
  --> max chng: dpmx=   1.5155E-06 dtmpmx=   4.8274E-08

== TH FLOW =====================================================================
 Step    193 Time=  9.05000E+00 Dt=  5.00000E-02 [y] snes_conv_reason:   11
  newton =   1 [     200] linear =   108 [     23111] cuts =  0 [   0]
  --> max chng: dpmx=   1.4387E-06 dtmpmx=   4.7711E-08

== TH FLOW =====================================================================
 Step    194 Time=  9.10000E+00 Dt=  5.00000E-02 [y] snes_conv_reason:   11
  newton =   1 [     201] linear =   105 [     23216] cuts =  0 [   0]
  --> max chng: dpmx=   1.3604E-06 dtmpmx=   4.7205E-08

== TH FLOW =====================================================================
 Step    195 Time=  9.15000E+00 Dt=  5.00000E-02 [y] snes_conv_reason:   11
  newton =   1 [     202] linear =   114 [     23330] cuts =  0 [   0]
  --> max chng: dpmx=   1.2816E-06 dtmpmx=   4.6349E-08

== TH FLOW =====================================================================
 Step    196 Time=  9.20000E+00 Dt=  5.00000E-02 [y] snes_conv_reason:   11
  newton =   1 [     203] linear =   111 [     23441] cuts =  0 [   0]
  --> max chng: dpmx=   1.2039E-06 dtmpmx=   4.5137E-08

== TH FLOW =====================================================================
 Step    197 Time=  9.25000E+00 Dt=  5.00000E-02 [y] snes_conv_reason:   11
  newton =   1 [     204] linear =   113 [     23554] cuts =  0 [   0]
  --> max chng: dpmx=   1.1275E-06 dtmpmx=   4.3693E-08

== TH FLOW =====================================================================
 Step    198 Time=  9.30000E+00 Dt=  5.00000E-02 [y] snes_conv_reason:   11
  newton =   1 [     205] linear =   119 [     23673] cuts =  0 [   0]
  --> max chng: dpmx=   1.0525E-06 dtmpmx=   4.2068E-08

== TH FLOW =====================================================================
 Step    199 Time=  9.35000E+00 Dt=  5.00000E-02 [y] snes_conv_reason:   11
  newton =   1 [     206] linear =   113 [     23786] cuts =  0 [   0]
  --> max chng: dpmx=   9.8010E-07 dtmpmx=   4.0271E-08

== TH FLOW =====================================================================
 Step    200 Time=  9.40000E+00 Dt=  5.00000E-02 [y] snes_conv_reason:   11
  newton =   1 [     207] linear =   112 [     23898] cuts =  0 [   0]
  --> max chng: dpmx=   9.1060E-07 dtmpmx=   3.8421E-08

== TH FLOW =====================================================================
 Step    201 Time=  9.45000E+00 Dt=  5.00000E-02 [y] snes_conv_reason:   11
  newton =   1 [     208] linear =   115 [     24013] cuts =  0 [   0]
  --> max chng: dpmx=   8.4320E-07 dtmpmx=   3.6499E-08

== TH FLOW =====================================================================
 Step    202 Time=  9.50000E+00 Dt=  5.00000E-02 [y] snes_conv_reason:   11
  newton =   1 [     209] linear =   116 [     24129] cuts =  0 [   0]
  --> max chng: dpmx=   7.7928E-07 dtmpmx=   3.4539E-08

== TH FLOW =====================================================================
 Step    203 Time=  9.55000E+00 Dt=  5.00000E-02 [y] snes_conv_reason:   11
  newton =   1 [     210] linear =   115 [     24244] cuts =  0 [   0]
  --> max chng: dpmx=   7.1817E-07 dtmpmx=   3.2451E-08

== TH FLOW =====================================================================
 Step    204 Time=  9.60000E+00 Dt=  5.00000E-02 [y] snes_conv_reason:   11
  newton =   1 [     211] linear =   117 [     24361] cuts =  0 [   0]
  --> max chng: dpmx=   6.6066E-07 dtmpmx=   3.0524E-08

== TH FLOW =====================================================================
 Step    205 Time=  9.65000E+00 Dt=  5.00000E-02 [y] snes_conv_reason:   11
  newton =   1 [     212] linear =   116 [     24477] cuts =  0 [   0]
  --> max chng: dpmx=   6.0606E-07 dtmpmx=   2.8625E-08

== TH FLOW =====================================================================
 Step    206 Time=  9.70000E+00 Dt=  5.00000E-02 [y] snes_conv_reason:   11
  newton =   1 [     213] linear =   112 [     24589] cuts =  0 [   0]
  --> max chng: dpmx=   5.5449E-07 dtmpmx=   2.6661E-08

== TH FLOW =====================================================================
 Step    207 Time=  9.75000E+00 Dt=  5.00000E-02 [y] snes_conv_reason:   11
  newton =   1 [     214] linear =   115 [     24704] cuts =  0 [   0]
  --> max chng: dpmx=   5.0617E-07 dtmpmx=   2.4837E-08

== TH FLOW =====================================================================
 Step    208 Time=  9.80000E+00 Dt=  5.00000E-02 [y] snes_conv_reason:   11
  newton =   1 [     215] linear =   116 [     24820] cuts =  0 [   0]
  --> max chng: dpmx=   4.6089E-07 dtmpmx=   2.3100E-08

== TH FLOW =====================================================================
 Step    209 Time=  9.85000E+00 Dt=  5.00000E-02 [y] snes_conv_reason:   11
  newton =   1 [     216] linear =   116 [     24936] cuts =  0 [   0]
  --> max chng: dpmx=   4.1875E-07 dtmpmx=   2.1388E-08

== TH FLOW =====================================================================
 Step    210 Time=  9.90000E+00 Dt=  5.00000E-02 [y] snes_conv_reason:   11
  newton =   1 [     217] linear =   115 [     25051] cuts =  0 [   0]
  --> max chng: dpmx=   3.7940E-07 dtmpmx=   1.9760E-08

== TH FLOW =====================================================================
 Step    211 Time=  9.95000E+00 Dt=  5.00000E-02 [y] snes_conv_reason:   11
  newton =   1 [     218] linear =   118 [     25169] cuts =  0 [   0]
  --> max chng: dpmx=   3.4296E-07 dtmpmx=   1.8176E-08

== TH FLOW =====================================================================
 Step    212 Time=  1.00000E+01 Dt=  5.00000E-02 [y] snes_conv_reason:   11
  newton =   1 [     219] linear =   109 [     25278] cuts =  0 [   0]
  --> max chng: dpmx=   3.0908E-07 dtmpmx=   1.6666E-08

== TH FLOW =====================================================================
 Step    213 Time=  1.00500E+01 Dt=  5.00000E-02 [y] snes_conv_reason:   11
  newton =   1 [     220] linear =   114 [     25392] cuts =  0 [   0]
  --> max chng: dpmx=   2.7800E-07 dtmpmx=   1.5338E-08

== TH FLOW =====================================================================
 Step    214 Time=  1.01000E+01 Dt=  5.00000E-02 [y] snes_conv_reason:   11
  newton =   1 [     221] linear =   119 [     25511] cuts =  0 [   0]
  --> max chng: dpmx=   2.4913E-07 dtmpmx=   1.3969E-08

== TH FLOW =====================================================================
 Step    215 Time=  1.01500E+01 Dt=  5.00000E-02 [y] snes_conv_reason:   11
  newton =   1 [     222] linear =   119 [     25630] cuts =  0 [   0]
  --> max chng: dpmx=   2.2294E-07 dtmpmx=   1.2802E-08

== TH FLOW =====================================================================
 Step    216 Time=  1.02000E+01 Dt=  5.00000E-02 [y] snes_conv_reason:   11
  newton =   1 [     223] linear =   120 [     25750] cuts =  0 [   0]
  --> max chng: dpmx=   1.9872E-07 dtmpmx=   1.1547E-08

== TH FLOW =====================================================================
 Step    217 Time=  1.02500E+01 Dt=  5.00000E-02 [y] snes_conv_reason:   11
  newton =   1 [     224] linear =   119 [     25869] cuts =  0 [   0]
  --> max chng: dpmx=   1.7683E-07 dtmpmx=   1.0506E-08

== TH FLOW =====================================================================
 Step    218 Time=  1.03000E+01 Dt=  5.00000E-02 [y] snes_conv_reason:   11
  newton =   1 [     225] linear =   118 [     25987] cuts =  0 [   0]
  --> max chng: dpmx=   1.5693E-07 dtmpmx=   9.4823E-09

== TH FLOW =====================================================================
 Step    219 Time=  1.03500E+01 Dt=  5.00000E-02 [y] snes_conv_reason:   11
  newton =   1 [     226] linear =   119 [     26106] cuts =  0 [   0]
  --> max chng: dpmx=   1.3865E-07 dtmpmx=   8.5676E-09

== TH FLOW =====================================================================
 Step    220 Time=  1.04000E+01 Dt=  5.00000E-02 [y] snes_conv_reason:   11
  newton =   1 [     227] linear =   119 [     26225] cuts =  0 [   0]
  --> max chng: dpmx=   1.2235E-07 dtmpmx=   7.7123E-09

== TH FLOW =====================================================================
 Step    221 Time=  1.04500E+01 Dt=  5.00000E-02 [y] snes_conv_reason:   11
  newton =   1 [     228] linear =   120 [     26345] cuts =  0 [   0]
  --> max chng: dpmx=   1.0757E-07 dtmpmx=   6.8449E-09

== TH FLOW =====================================================================
 Step    222 Time=  1.05000E+01 Dt=  5.00000E-02 [y] snes_conv_reason:   11
  newton =   1 [     229] linear =   119 [     26464] cuts =  0 [   0]
  --> max chng: dpmx=   9.4296E-08 dtmpmx=   6.1589E-09

== TH FLOW =====================================================================
 Step    223 Time=  1.05500E+01 Dt=  5.00000E-02 [y] snes_conv_reason:   11
  newton =   1 [     230] linear =   117 [     26581] cuts =  0 [   0]
  --> max chng: dpmx=   8.2306E-08 dtmpmx=   5.4988E-09

== TH FLOW =====================================================================
 Step    224 Time=  1.06000E+01 Dt=  5.00000E-02 [y] snes_conv_reason:   11
  newton =   1 [     231] linear =   118 [     26699] cuts =  0 [   0]
  --> max chng: dpmx=   7.1712E-08 dtmpmx=   4.8972E-09

== TH FLOW =====================================================================
 Step    225 Time=  1.06500E+01 Dt=  5.00000E-02 [y] snes_conv_reason:   11
  newton =   1 [     232] linear =   118 [     26817] cuts =  0 [   0]
  --> max chng: dpmx=   6.2166E-08 dtmpmx=   4.2884E-09

== TH FLOW =====================================================================
 Step    226 Time=  1.07000E+01 Dt=  5.00000E-02 [y] snes_conv_reason:   11
  newton =   1 [     233] linear =   118 [     26935] cuts =  0 [   0]
  --> max chng: dpmx=   5.3784E-08 dtmpmx=   3.8638E-09

== TH FLOW =====================================================================
 Step    227 Time=  1.07500E+01 Dt=  5.00000E-02 [y] snes_conv_reason:   11
  newton =   1 [     234] linear =   119 [     27054] cuts =  0 [   0]
  --> max chng: dpmx=   4.6217E-08 dtmpmx=   3.3279E-09

== TH FLOW =====================================================================
 Step    228 Time=  1.08000E+01 Dt=  5.00000E-02 [y] snes_conv_reason:   11
  newton =   1 [     235] linear =   120 [     27174] cuts =  0 [   0]
  --> max chng: dpmx=   3.9581E-08 dtmpmx=   2.9282E-09

== TH FLOW =====================================================================
 Step    229 Time=  1.08500E+01 Dt=  5.00000E-02 [y] snes_conv_reason:   11
  newton =   1 [     236] linear =   121 [     27295] cuts =  0 [   0]
  --> max chng: dpmx=   3.3760E-08 dtmpmx=   2.5713E-09

== TH FLOW =====================================================================
 Step    230 Time=  1.09000E+01 Dt=  5.00000E-02 [y] snes_conv_reason:   11
  newton =   1 [     237] linear =   121 [     27416] cuts =  0 [   0]
  --> max chng: dpmx=   2.8871E-08 dtmpmx=   2.2197E-09

== TH FLOW =====================================================================
 Step    231 Time=  1.09500E+01 Dt=  5.00000E-02 [y] snes_conv_reason:   11
  newton =   1 [     238] linear =   120 [     27536] cuts =  0 [   0]
  --> max chng: dpmx=   2.4331E-08 dtmpmx=   1.9370E-09

== TH FLOW =====================================================================
 Step    232 Time=  1.10000E+01 Dt=  5.00000E-02 [y] snes_conv_reason:   11
  newton =   1 [     239] linear =   124 [     27660] cuts =  0 [   0]
  --> max chng: dpmx=   2.0489E-08 dtmpmx=   1.6663E-09

== TH FLOW =====================================================================
 Step    233 Time=  1.10500E+01 Dt=  5.00000E-02 [y] snes_conv_reason:   11
  newton =   1 [     240] linear =   125 [     27785] cuts =  0 [   0]
  --> max chng: dpmx=   1.7229E-08 dtmpmx=   1.4345E-09

== TH FLOW =====================================================================
 Step    234 Time=  1.11000E+01 Dt=  5.00000E-02 [y] snes_conv_reason:   11
  newton =   1 [     241] linear =   122 [     27907] cuts =  0 [   0]
  --> max chng: dpmx=   1.4319E-08 dtmpmx=   1.2560E-09

== TH FLOW =====================================================================
 Step    235 Time=  1.11500E+01 Dt=  5.00000E-02 [y] snes_conv_reason:   11
  newton =   1 [     242] linear =   127 [     28034] cuts =  0 [   0]
  --> max chng: dpmx=   1.1874E-08 dtmpmx=   1.0589E-09

== TH FLOW =====================================================================
 Step    236 Time=  1.12000E+01 Dt=  5.00000E-02 [y] snes_conv_reason:   11
  newton =   1 [     243] linear =   128 [     28162] cuts =  0 [   0]
  --> max chng: dpmx=   9.6625E-09 dtmpmx=   8.9388E-10

== TH FLOW =====================================================================
 Step    237 Time=  1.12500E+01 Dt=  5.00000E-02 [y] snes_conv_reason:   11
  newton =   1 [     244] linear =   130 [     28292] cuts =  0 [   0]
  --> max chng: dpmx=   7.9162E-09 dtmpmx=   7.3303E-10

== TH FLOW =====================================================================
 Step    238 Time=  1.13000E+01 Dt=  5.00000E-02 [y] snes_conv_reason:   11
  newton =   1 [     245] linear =   130 [     28422] cuts =  0 [   0]
  --> max chng: dpmx=   6.2864E-09 dtmpmx=   6.1996E-10

== TH FLOW =====================================================================
 Step    239 Time=  1.13500E+01 Dt=  5.00000E-02 [y] snes_conv_reason:   11
  newton =   1 [     246] linear =   131 [     28553] cuts =  0 [   0]
  --> max chng: dpmx=   5.1223E-09 dtmpmx=   5.3577E-10

== TH FLOW =====================================================================
 Step    240 Time=  1.14000E+01 Dt=  5.00000E-02 [y] snes_conv_reason:   11
  newton =   1 [     247] linear =   130 [     28683] cuts =  0 [   0]
  --> max chng: dpmx=   4.0745E-09 dtmpmx=   4.8283E-10

== TH FLOW =====================================================================
 Step    241 Time=  1.14500E+01 Dt=  5.00000E-02 [y] snes_conv_reason:   11
  newton =   1 [     248] linear =   129 [     28812] cuts =  0 [   0]
  --> max chng: dpmx=   3.1432E-09 dtmpmx=   3.2236E-10

== TH FLOW =====================================================================
 Step    242 Time=  1.15000E+01 Dt=  5.00000E-02 [y] snes_conv_reason:   11
  newton =   1 [     249] linear =   121 [     28933] cuts =  0 [   0]
  --> max chng: dpmx=   2.3283E-09 dtmpmx=   3.0071E-10

== TH FLOW =====================================================================
 Step    243 Time=  1.15500E+01 Dt=  5.00000E-02 [y] snes_conv_reason:   11
  newton =   1 [     250] linear =   129 [     29062] cuts =  0 [   0]
  --> max chng: dpmx=   1.8626E-09 dtmpmx=   2.3077E-10

== TH FLOW =====================================================================
 Step    244 Time=  1.16000E+01 Dt=  5.00000E-02 [y] snes_conv_reason:   11
  newton =   1 [     251] linear =   126 [     29188] cuts =  0 [   0]
  --> max chng: dpmx=   1.3970E-09 dtmpmx=   1.7016E-10

== TH FLOW =====================================================================
 Step    245 Time=  1.16500E+01 Dt=  5.00000E-02 [y] snes_conv_reason:   11
  newton =   1 [     252] linear =   126 [     29314] cuts =  0 [   0]
  --> max chng: dpmx=   1.0477E-09 dtmpmx=   1.3543E-10

== TH FLOW =====================================================================
 Step    246 Time=  1.17000E+01 Dt=  5.00000E-02 [y] snes_conv_reason:   11
  newton =   1 [     253] linear =   110 [     29424] cuts =  0 [   0]
  --> max chng: dpmx=   1.1642E-09 dtmpmx=   1.1844E-10

== TH FLOW =====================================================================
 Step    247 Time=  1.17500E+01 Dt=  5.00000E-02 [y] snes_conv_reason:   11
  newton =   1 [     254] linear =    99 [     29523] cuts =  0 [   0]
  --> max chng: dpmx=   1.1642E-09 dtmpmx=   9.2633E-11

== TH FLOW =====================================================================
 Step    248 Time=  1.18000E+01 Dt=  5.00000E-02 [y] snes_conv_reason:   11
  newton =   1 [     255] linear =   114 [     29637] cuts =  0 [   0]
  --> max chng: dpmx=   1.3970E-09 dtmpmx=   1.0311E-10

== TH FLOW =====================================================================
 Step    249 Time=  1.18500E+01 Dt=  5.00000E-02 [y] snes_conv_reason:   11
  newton =   1 [     256] linear =   122 [     29759] cuts =  0 [   0]
  --> max chng: dpmx=   1.3970E-09 dtmpmx=   9.7124E-11

== TH FLOW =====================================================================
 Step    250 Time=  1.19000E+01 Dt=  5.00000E-02 [y] snes_conv_reason:   11
  newton =   1 [     257] linear =   115 [     29874] cuts =  0 [   0]
  --> max chng: dpmx=   1.3970E-09 dtmpmx=   8.7431E-11

== TH FLOW =====================================================================
 Step    251 Time=  1.19500E+01 Dt=  5.00000E-02 [y] snes_conv_reason:   11
  newton =   1 [     258] linear =   118 [     29992] cuts =  0 [   0]
  --> max chng: dpmx=   1.3970E-09 dtmpmx=   9.5874E-11

== TH FLOW =====================================================================
 Step    252 Time=  1.20000E+01 Dt=  5.00000E-02 [y] snes_conv_reason:   11
  newton =   1 [     259] linear =   116 [     30108] cuts =  0 [   0]
  --> max chng: dpmx=   1.5134E-09 dtmpmx=   9.5802E-11

== TH FLOW =====================================================================
 Step    253 Time=  1.20500E+01 Dt=  5.00000E-02 [y] snes_conv_reason:   11
  newton =   1 [     260] linear =   108 [     30216] cuts =  0 [   0]
  --> max chng: dpmx=   1.3970E-09 dtmpmx=   8.9683E-11

== TH FLOW =====================================================================
 Step    254 Time=  1.21000E+01 Dt=  5.00000E-02 [y] snes_conv_reason:   11
  newton =   1 [     261] linear =   120 [     30336] cuts =  0 [   0]
  --> max chng: dpmx=   1.3970E-09 dtmpmx=   8.8852E-11

== TH FLOW =====================================================================
 Step    255 Time=  1.21500E+01 Dt=  5.00000E-02 [y] snes_conv_reason:   11
  newton =   1 [     262] linear =   106 [     30442] cuts =  0 [   0]
  --> max chng: dpmx=   1.3970E-09 dtmpmx=   8.9749E-11

== TH FLOW =====================================================================
 Step    256 Time=  1.22000E+01 Dt=  5.00000E-02 [y] snes_conv_reason:   11
  newton =   1 [     263] linear =   103 [     30545] cuts =  0 [   0]
  --> max chng: dpmx=   1.2806E-09 dtmpmx=   8.2565E-11

== TH FLOW =====================================================================
 Step    257 Time=  1.22500E+01 Dt=  5.00000E-02 [y] snes_conv_reason:   11
  newton =   1 [     264] linear =   109 [     30654] cuts =  0 [   0]
  --> max chng: dpmx=   1.2806E-09 dtmpmx=   1.0507E-10

[...]
 Step    493 Time=  2.40500E+01 Dt=  5.00000E-02 [y] snes_conv_reason:   11
  newton =   1 [     500] linear =   103 [     53993] cuts =  0 [   0]
  --> max chng: dpmx=   2.3283E-10 dtmpmx=   8.7361E-11

== TH FLOW =====================================================================
 Step    494 Time=  2.41000E+01 Dt=  5.00000E-02 [y] snes_conv_reason:   11
  newton =   1 [     501] linear =   117 [     54110] cuts =  0 [   0]
  --> max chng: dpmx=   2.3283E-10 dtmpmx=   8.6533E-11

== TH FLOW =====================================================================
 Step    495 Time=  2.41500E+01 Dt=  5.00000E-02 [y] snes_conv_reason:   11
  newton =   1 [     502] linear =   107 [     54217] cuts =  0 [   0]
  --> max chng: dpmx=   3.4925E-10 dtmpmx=   8.5542E-11

== TH FLOW =====================================================================
 Step    496 Time=  2.42000E+01 Dt=  5.00000E-02 [y] snes_conv_reason:   11
  newton =   1 [     503] linear =   110 [     54327] cuts =  0 [   0]
  --> max chng: dpmx=   2.3283E-10 dtmpmx=   8.3169E-11

== TH FLOW =====================================================================
 Step    497 Time=  2.42500E+01 Dt=  5.00000E-02 [y] snes_conv_reason:   11
  newton =   1 [     504] linear =   113 [     54440] cuts =  0 [   0]
  --> max chng: dpmx=   2.3283E-10 dtmpmx=   9.1420E-11

== TH FLOW =====================================================================
 Step    498 Time=  2.43000E+01 Dt=  5.00000E-02 [y] snes_conv_reason:   11
  newton =   1 [     505] linear =    91 [     54531] cuts =  0 [   0]
  --> max chng: dpmx=   2.3283E-10 dtmpmx=   7.8993E-11

== TH FLOW =====================================================================
 Step    499 Time=  2.43500E+01 Dt=  5.00000E-02 [y] snes_conv_reason:   11
  newton =   1 [     506] linear =   113 [     54644] cuts =  0 [   0]
  --> max chng: dpmx=   2.3283E-10 dtmpmx=   8.7256E-11

== TH FLOW =====================================================================
 Step    500 Time=  2.44000E+01 Dt=  5.00000E-02 [y] snes_conv_reason:   11
  newton =   1 [     507] linear =    94 [     54738] cuts =  0 [   0]
  --> max chng: dpmx=   2.3283E-10 dtmpmx=   9.7781E-11

== TH FLOW =====================================================================
 Step    501 Time=  2.44500E+01 Dt=  5.00000E-02 [y] snes_conv_reason:   11
  newton =   1 [     508] linear =    96 [     54834] cuts =  0 [   0]
  --> max chng: dpmx=   2.3283E-10 dtmpmx=   8.6377E-11

== TH FLOW =====================================================================
 Step    502 Time=  2.45000E+01 Dt=  5.00000E-02 [y] snes_conv_reason:   11
  newton =   1 [     509] linear =    73 [     54907] cuts =  0 [   0]
  --> max chng: dpmx=   2.3283E-10 dtmpmx=   9.6618E-11

== TH FLOW =====================================================================
 Step    503 Time=  2.45500E+01 Dt=  5.00000E-02 [y] snes_conv_reason:   11
  newton =   1 [     510] linear =   101 [     55008] cuts =  0 [   0]
  --> max chng: dpmx=   2.3283E-10 dtmpmx=   8.3361E-11

== TH FLOW =====================================================================
 Step    504 Time=  2.46000E+01 Dt=  5.00000E-02 [y] snes_conv_reason:   11
  newton =   1 [     511] linear =    94 [     55102] cuts =  0 [   0]
  --> max chng: dpmx=   2.3283E-10 dtmpmx=   8.2338E-11

== TH FLOW =====================================================================
 Step    505 Time=  2.46500E+01 Dt=  5.00000E-02 [y] snes_conv_reason:   11
  newton =   1 [     512] linear =    70 [     55172] cuts =  0 [   0]
  --> max chng: dpmx=   2.3283E-10 dtmpmx=   7.7604E-11

== TH FLOW =====================================================================
 Step    506 Time=  2.47000E+01 Dt=  5.00000E-02 [y] snes_conv_reason:   11
  newton =   1 [     513] linear =    94 [     55266] cuts =  0 [   0]
  --> max chng: dpmx=   2.3283E-10 dtmpmx=   8.0998E-11

== TH FLOW =====================================================================
 Step    507 Time=  2.47500E+01 Dt=  5.00000E-02 [y] snes_conv_reason:   11
  newton =   1 [     514] linear =    94 [     55360] cuts =  0 [   0]
  --> max chng: dpmx=   2.3283E-10 dtmpmx=   9.4397E-11

== TH FLOW =====================================================================
 Step    508 Time=  2.48000E+01 Dt=  5.00000E-02 [y] snes_conv_reason:   11
  newton =   1 [     515] linear =   113 [     55473] cuts =  0 [   0]
  --> max chng: dpmx=   2.3283E-10 dtmpmx=   8.2162E-11

== TH FLOW =====================================================================
 Step    509 Time=  2.48500E+01 Dt=  5.00000E-02 [y] snes_conv_reason:   11
  newton =   1 [     516] linear =   109 [     55582] cuts =  0 [   0]
  --> max chng: dpmx=   2.3283E-10 dtmpmx=   9.3918E-11

== TH FLOW =====================================================================
 Step    510 Time=  2.49000E+01 Dt=  5.00000E-02 [y] snes_conv_reason:   11
  newton =   1 [     517] linear =    96 [     55678] cuts =  0 [   0]
  --> max chng: dpmx=   2.3283E-10 dtmpmx=   8.2077E-11

== TH FLOW =====================================================================
 Step    511 Time=  2.49500E+01 Dt=  5.00000E-02 [y] snes_conv_reason:   11
  newton =   1 [     518] linear =   105 [     55783] cuts =  0 [   0]
  --> max chng: dpmx=   3.4925E-10 dtmpmx=   8.2119E-11

== TH FLOW =====================================================================
 Step    512 Time=  2.50000E+01 Dt=  5.00000E-02 [y] snes_conv_reason:   11
  newton =   1 [     519] linear =   110 [     55893] cuts =  0 [   0]
  --> max chng: dpmx=   2.3283E-10 dtmpmx=   9.3465E-11

== TH FLOW =====================================================================
 Step    513 Time=  2.50500E+01 Dt=  5.00000E-02 [y] snes_conv_reason:   11
  newton =   1 [     520] linear =   102 [     55995] cuts =  0 [   0]
  --> max chng: dpmx=   2.3283E-10 dtmpmx=   8.8626E-11

== TH FLOW =====================================================================
 Step    514 Time=  2.51000E+01 Dt=  5.00000E-02 [y] snes_conv_reason:   11
  newton =   1 [     521] linear =   110 [     56105] cuts =  0 [   0]
  --> max chng: dpmx=   2.3283E-10 dtmpmx=   7.9634E-11

== TH FLOW =====================================================================
 Step    515 Time=  2.51500E+01 Dt=  5.00000E-02 [y] snes_conv_reason:   11
  newton =   1 [     522] linear =   120 [     56225] cuts =  0 [   0]
  --> max chng: dpmx=   3.4925E-10 dtmpmx=   9.8556E-11

== TH FLOW =====================================================================
 Step    516 Time=  2.52000E+01 Dt=  5.00000E-02 [y] snes_conv_reason:   11
  newton =   1 [     523] linear =    89 [     56314] cuts =  0 [   0]
  --> max chng: dpmx=   3.4925E-10 dtmpmx=   9.1152E-11

== TH FLOW =====================================================================
 Step    517 Time=  2.52500E+01 Dt=  5.00000E-02 [y] snes_conv_reason:   11
  newton =   1 [     524] linear =   120 [     56434] cuts =  0 [   0]
  --> max chng: dpmx=   2.3283E-10 dtmpmx=   8.8002E-11

== TH FLOW =====================================================================
 Step    518 Time=  2.53000E+01 Dt=  5.00000E-02 [y] snes_conv_reason:   11
  newton =   1 [     525] linear =    68 [     56502] cuts =  0 [   0]
  --> max chng: dpmx=   2.3283E-10 dtmpmx=   8.2833E-11

== TH FLOW =====================================================================
 Step    519 Time=  2.53500E+01 Dt=  5.00000E-02 [y] snes_conv_reason:   11
  newton =   1 [     526] linear =   100 [     56602] cuts =  0 [   0]
  --> max chng: dpmx=   2.3283E-10 dtmpmx=   8.6155E-11

== TH FLOW =====================================================================
 Step    520 Time=  2.54000E+01 Dt=  5.00000E-02 [y] snes_conv_reason:   11
  newton =   1 [     527] linear =   127 [     56729] cuts =  0 [   0]
  --> max chng: dpmx=   2.3283E-10 dtmpmx=   8.1691E-11

== TH FLOW =====================================================================
 Step    521 Time=  2.54500E+01 Dt=  5.00000E-02 [y] snes_conv_reason:   11
  newton =   1 [     528] linear =    73 [     56802] cuts =  0 [   0]
  --> max chng: dpmx=   2.3283E-10 dtmpmx=   9.1537E-11

== TH FLOW =====================================================================
 Step    522 Time=  2.55000E+01 Dt=  5.00000E-02 [y] snes_conv_reason:   11
  newton =   1 [     529] linear =   104 [     56906] cuts =  0 [   0]
  --> max chng: dpmx=   2.3283E-10 dtmpmx=   8.7386E-11

== TH FLOW =====================================================================
 Step    523 Time=  2.55500E+01 Dt=  5.00000E-02 [y] snes_conv_reason:   11
  newton =   1 [     530] linear =   102 [     57008] cuts =  0 [   0]
  --> max chng: dpmx=   2.3283E-10 dtmpmx=   8.4356E-11

== TH FLOW =====================================================================
 Step    524 Time=  2.56000E+01 Dt=  5.00000E-02 [y] snes_conv_reason:   11
  newton =   1 [     531] linear =    91 [     57099] cuts =  0 [   0]
  --> max chng: dpmx=   2.3283E-10 dtmpmx=   8.3844E-11

== TH FLOW =====================================================================
 Step    525 Time=  2.56500E+01 Dt=  5.00000E-02 [y] snes_conv_reason:   11
  newton =   1 [     532] linear =   103 [     57202] cuts =  0 [   0]
  --> max chng: dpmx=   2.3283E-10 dtmpmx=   8.9022E-11

== TH FLOW =====================================================================
 Step    526 Time=  2.57000E+01 Dt=  5.00000E-02 [y] snes_conv_reason:   11
  newton =   1 [     533] linear =   110 [     57312] cuts =  0 [   0]
  --> max chng: dpmx=   2.3283E-10 dtmpmx=   8.4396E-11

== TH FLOW =====================================================================
 Step    527 Time=  2.57500E+01 Dt=  5.00000E-02 [y] snes_conv_reason:   11
  newton =   1 [     534] linear =    95 [     57407] cuts =  0 [   0]
  --> max chng: dpmx=   2.3283E-10 dtmpmx=   8.2897E-11

== TH FLOW =====================================================================
 Step    528 Time=  2.58000E+01 Dt=  5.00000E-02 [y] snes_conv_reason:   11
  newton =   1 [     535] linear =   110 [     57517] cuts =  0 [   0]
  --> max chng: dpmx=   2.3283E-10 dtmpmx=   8.7505E-11

== TH FLOW =====================================================================
 Step    529 Time=  2.58500E+01 Dt=  5.00000E-02 [y] snes_conv_reason:   11
  newton =   1 [     536] linear =   115 [     57632] cuts =  0 [   0]
  --> max chng: dpmx=   2.3283E-10 dtmpmx=   8.0307E-11

== TH FLOW =====================================================================
 Step    530 Time=  2.59000E+01 Dt=  5.00000E-02 [y] snes_conv_reason:   11
  newton =   1 [     537] linear =   101 [     57733] cuts =  0 [   0]
  --> max chng: dpmx=   2.3283E-10 dtmpmx=   8.1966E-11

== TH FLOW =====================================================================
 Step    531 Time=  2.59500E+01 Dt=  5.00000E-02 [y] snes_conv_reason:   11
  newton =   1 [     538] linear =   105 [     57838] cuts =  0 [   0]
  --> max chng: dpmx=   2.3283E-10 dtmpmx=   9.3559E-11

== TH FLOW =====================================================================
 Step    532 Time=  2.60000E+01 Dt=  5.00000E-02 [y] snes_conv_reason:   11
  newton =   1 [     539] linear =   102 [     57940] cuts =  0 [   0]
  --> max chng: dpmx=   2.3283E-10 dtmpmx=   8.6333E-11

== TH FLOW =====================================================================
 Step    533 Time=  2.60500E+01 Dt=  5.00000E-02 [y] snes_conv_reason:   11
  newton =   1 [     540] linear =   108 [     58048] cuts =  0 [   0]
  --> max chng: dpmx=   2.3283E-10 dtmpmx=   1.0438E-10

== TH FLOW =====================================================================
 Step    534 Time=  2.61000E+01 Dt=  5.00000E-02 [y] snes_conv_reason:   11
  newton =   1 [     541] linear =    74 [     58122] cuts =  0 [   0]
  --> max chng: dpmx=   2.3283E-10 dtmpmx=   8.1787E-11

== TH FLOW =====================================================================
 Step    535 Time=  2.61500E+01 Dt=  5.00000E-02 [y] snes_conv_reason:   11
  newton =   1 [     542] linear =   106 [     58228] cuts =  0 [   0]
  --> max chng: dpmx=   2.3283E-10 dtmpmx=   8.7974E-11

== TH FLOW =====================================================================
 Step    536 Time=  2.62000E+01 Dt=  5.00000E-02 [y] snes_conv_reason:   11
  newton =   1 [     543] linear =    72 [     58300] cuts =  0 [   0]
  --> max chng: dpmx=   2.3283E-10 dtmpmx=   8.0616E-11

== TH FLOW =====================================================================
 Step    537 Time=  2.62500E+01 Dt=  5.00000E-02 [y] snes_conv_reason:   11
  newton =   1 [     544] linear =   112 [     58412] cuts =  0 [   0]
  --> max chng: dpmx=   3.4925E-10 dtmpmx=   8.9303E-11

== TH FLOW =====================================================================
 Step    538 Time=  2.63000E+01 Dt=  5.00000E-02 [y] snes_conv_reason:   11
  newton =   1 [     545] linear =    98 [     58510] cuts =  0 [   0]
  --> max chng: dpmx=   2.3283E-10 dtmpmx=   9.3420E-11

== TH FLOW =====================================================================
 Step    539 Time=  2.63500E+01 Dt=  5.00000E-02 [y] snes_conv_reason:   11
  newton =   1 [     546] linear =    96 [     58606] cuts =  0 [   0]
  --> max chng: dpmx=   2.3283E-10 dtmpmx=   9.1287E-11

== TH FLOW =====================================================================
 Step    540 Time=  2.64000E+01 Dt=  5.00000E-02 [y] snes_conv_reason:   11
  newton =   1 [     547] linear =    95 [     58701] cuts =  0 [   0]
  --> max chng: dpmx=   2.3283E-10 dtmpmx=   8.4164E-11

== TH FLOW =====================================================================
 Step    541 Time=  2.64500E+01 Dt=  5.00000E-02 [y] snes_conv_reason:   11
  newton =   1 [     548] linear =    93 [     58794] cuts =  0 [   0]
  --> max chng: dpmx=   2.3283E-10 dtmpmx=   9.3609E-11

== TH FLOW =====================================================================
 Step    542 Time=  2.65000E+01 Dt=  5.00000E-02 [y] snes_conv_reason:   11
  newton =   1 [     549] linear =   101 [     58895] cuts =  0 [   0]
  --> max chng: dpmx=   2.3283E-10 dtmpmx=   8.8658E-11

== TH FLOW =====================================================================
 Step    543 Time=  2.65500E+01 Dt=  5.00000E-02 [y] snes_conv_reason:   11
  newton =   1 [     550] linear =   105 [     59000] cuts =  0 [   0]
  --> max chng: dpmx=   2.3283E-10 dtmpmx=   8.3734E-11

== TH FLOW =====================================================================
 Step    544 Time=  2.66000E+01 Dt=  5.00000E-02 [y] snes_conv_reason:   11
  newton =   1 [     551] linear =    75 [     59075] cuts =  0 [   0]
  --> max chng: dpmx=   2.3283E-10 dtmpmx=   8.7022E-11

== TH FLOW =====================================================================
 Step    545 Time=  2.66500E+01 Dt=  5.00000E-02 [y] snes_conv_reason:   11
  newton =   1 [     552] linear =   116 [     59191] cuts =  0 [   0]
  --> max chng: dpmx=   2.3283E-10 dtmpmx=   8.7454E-11

== TH FLOW =====================================================================
 Step    546 Time=  2.67000E+01 Dt=  5.00000E-02 [y] snes_conv_reason:   11
  newton =   1 [     553] linear =   112 [     59303] cuts =  0 [   0]
  --> max chng: dpmx=   3.4925E-10 dtmpmx=   9.2676E-11

== TH FLOW =====================================================================
 Step    547 Time=  2.67500E+01 Dt=  5.00000E-02 [y] snes_conv_reason:   11
  newton =   1 [     554] linear =    64 [     59367] cuts =  0 [   0]
  --> max chng: dpmx=   2.3283E-10 dtmpmx=   8.0226E-11

== TH FLOW =====================================================================
 Step    548 Time=  2.68000E+01 Dt=  5.00000E-02 [y] snes_conv_reason:   11
  newton =   1 [     555] linear =    99 [     59466] cuts =  0 [   0]
  --> max chng: dpmx=   2.3283E-10 dtmpmx=   8.3915E-11

== TH FLOW =====================================================================
 Step    549 Time=  2.68500E+01 Dt=  5.00000E-02 [y] snes_conv_reason:   11
  newton =   1 [     556] linear =   107 [     59573] cuts =  0 [   0]
  --> max chng: dpmx=   2.3283E-10 dtmpmx=   9.3321E-11

== TH FLOW =====================================================================
 Step    550 Time=  2.69000E+01 Dt=  5.00000E-02 [y] snes_conv_reason:   11
  newton =   1 [     557] linear =    92 [     59665] cuts =  0 [   0]
  --> max chng: dpmx=   2.3283E-10 dtmpmx=   8.3828E-11

== TH FLOW =====================================================================
 Step    551 Time=  2.69500E+01 Dt=  5.00000E-02 [y] snes_conv_reason:   11
  newton =   1 [     558] linear =   102 [     59767] cuts =  0 [   0]
  --> max chng: dpmx=   2.3283E-10 dtmpmx=   8.9283E-11

== TH FLOW =====================================================================
 Step    552 Time=  2.70000E+01 Dt=  5.00000E-02 [y] snes_conv_reason:   11
  newton =   1 [     559] linear =   100 [     59867] cuts =  0 [   0]
  --> max chng: dpmx=   2.3283E-10 dtmpmx=   9.0022E-11

== TH FLOW =====================================================================
 Step    553 Time=  2.70500E+01 Dt=  5.00000E-02 [y] snes_conv_reason:   11
  newton =   1 [     560] linear =    99 [     59966] cuts =  0 [   0]
  --> max chng: dpmx=   3.4925E-10 dtmpmx=   8.9033E-11

== TH FLOW =====================================================================
 Step    554 Time=  2.71000E+01 Dt=  5.00000E-02 [y] snes_conv_reason:   11
  newton =   1 [     561] linear =    90 [     60056] cuts =  0 [   0]
  --> max chng: dpmx=   2.3283E-10 dtmpmx=   8.7534E-11

== TH FLOW =====================================================================
 Step    555 Time=  2.71500E+01 Dt=  5.00000E-02 [y] snes_conv_reason:   11
  newton =   1 [     562] linear =   105 [     60161] cuts =  0 [   0]
  --> max chng: dpmx=   3.4925E-10 dtmpmx=   7.8106E-11

== TH FLOW =====================================================================
 Step    556 Time=  2.72000E+01 Dt=  5.00000E-02 [y] snes_conv_reason:   11
  newton =   1 [     563] linear =   107 [     60268] cuts =  0 [   0]
  --> max chng: dpmx=   2.3283E-10 dtmpmx=   9.3618E-11

== TH FLOW =====================================================================
 Step    557 Time=  2.72500E+01 Dt=  5.00000E-02 [y] snes_conv_reason:   11
  newton =   1 [     564] linear =   104 [     60372] cuts =  0 [   0]
  --> max chng: dpmx=   3.4925E-10 dtmpmx=   9.2999E-11

== TH FLOW =====================================================================
 Step    558 Time=  2.73000E+01 Dt=  5.00000E-02 [y] snes_conv_reason:   11
  newton =   1 [     565] linear =   103 [     60475] cuts =  0 [   0]
  --> max chng: dpmx=   2.3283E-10 dtmpmx=   9.4955E-11

== TH FLOW =====================================================================
 Step    559 Time=  2.73500E+01 Dt=  5.00000E-02 [y] snes_conv_reason:   11
  newton =   1 [     566] linear =   111 [     60586] cuts =  0 [   0]
  --> max chng: dpmx=   2.3283E-10 dtmpmx=   9.0823E-11

== TH FLOW =====================================================================
 Step    560 Time=  2.74000E+01 Dt=  5.00000E-02 [y] snes_conv_reason:   11
  newton =   1 [     567] linear =    88 [     60674] cuts =  0 [   0]
  --> max chng: dpmx=   2.3283E-10 dtmpmx=   7.6566E-11

== TH FLOW =====================================================================
 Step    561 Time=  2.74500E+01 Dt=  5.00000E-02 [y] snes_conv_reason:   11
  newton =   1 [     568] linear =    91 [     60765] cuts =  0 [   0]
  --> max chng: dpmx=   2.3283E-10 dtmpmx=   1.0251E-10

== TH FLOW =====================================================================
 Step    562 Time=  2.75000E+01 Dt=  5.00000E-02 [y] snes_conv_reason:   11
  newton =   1 [     569] linear =    80 [     60845] cuts =  0 [   0]
  --> max chng: dpmx=   3.4925E-10 dtmpmx=   8.1336E-11

 Wall Clock Time:  1.4730E+02 [sec]   2.4550E+00 [min]   4.0916E-02 [hr]
