
===================
  PFLOTRAN v3.0.1
===================

 Extent of Gridded Domain
  X: 2.5000000000000000 - 97.500000000000000
  Y: 2.5000000000000000 - 1277.5000000000000
  Z: 2.5000000000000000 - 2.5000000000000000


=+=+=+=+=+=+=+=+=+=+=+=+=+=+=+=+=+=+=+=+=+=+=+=+=+=+=+=+=+=+=+=+=+=+=+=+=+=+=+=+

  Initial Condition

--------------------------------------------------------------------------------
          Flow Condition:   initial
                  Region:   all
--------------------------------------------------------------------------------

  Flow Condition: initial
    Synchronize time with update: no
    Time units: yr
    Length units: m
      Datum:
        Dataset: Unnamed Ascii Dataset
          Type: dataset_ascii_type
          Transient: no
          Array Rank:  3

    Sub Condition: pressure
      Type: hydrostatic
      Gradient:
        Dataset: Unnamed Ascii Dataset
          Type: dataset_ascii_type
          Transient: no
          Array Rank:  3
      Data:
        Dataset: Unnamed Ascii Dataset
          Type: dataset_ascii_type
          Transient: no
          Array Rank:  1

    Sub Condition: temperature
      Type: dirichlet
      Gradient:
      Data:
        Dataset: Unnamed Ascii Dataset
          Type: dataset_ascii_type
          Transient: no
          Array Rank:  1

--------------------------------------------------------------------------------

=+=+=+=+=+=+=+=+=+=+=+=+=+=+=+=+=+=+=+=+=+=+=+=+=+=+=+=+=+=+=+=+=+=+=+=+=+=+=+=+

  Boundary Condition

--------------------------------------------------------------------------------
          Flow Condition:   initial
                  Region:   north
--------------------------------------------------------------------------------

  Flow Condition: initial
    Synchronize time with update: no
    Time units: yr
    Length units: m
      Datum:
        Dataset: Unnamed Ascii Dataset
          Type: dataset_ascii_type
          Transient: no
          Array Rank:  3

    Sub Condition: pressure
      Type: hydrostatic
      Gradient:
        Dataset: Unnamed Ascii Dataset
          Type: dataset_ascii_type
          Transient: no
          Array Rank:  3
      Data:
        Dataset: Unnamed Ascii Dataset
          Type: dataset_ascii_type
          Transient: no
          Array Rank:  1

    Sub Condition: temperature
      Type: dirichlet
      Gradient:
      Data:
        Dataset: Unnamed Ascii Dataset
          Type: dataset_ascii_type
          Transient: no
          Array Rank:  1

--------------------------------------------------------------------------------

=+=+=+=+=+=+=+=+=+=+=+=+=+=+=+=+=+=+=+=+=+=+=+=+=+=+=+=+=+=+=+=+=+=+=+=+=+=+=+=+

  Boundary Condition

--------------------------------------------------------------------------------
          Flow Condition:   initial
                  Region:   south
--------------------------------------------------------------------------------

  Flow Condition: initial
    Synchronize time with update: no
    Time units: yr
    Length units: m
      Datum:
        Dataset: Unnamed Ascii Dataset
          Type: dataset_ascii_type
          Transient: no
          Array Rank:  3

    Sub Condition: pressure
      Type: hydrostatic
      Gradient:
        Dataset: Unnamed Ascii Dataset
          Type: dataset_ascii_type
          Transient: no
          Array Rank:  3
      Data:
        Dataset: Unnamed Ascii Dataset
          Type: dataset_ascii_type
          Transient: no
          Array Rank:  1

    Sub Condition: temperature
      Type: dirichlet
      Gradient:
      Data:
        Dataset: Unnamed Ascii Dataset
          Type: dataset_ascii_type
          Transient: no
          Array Rank:  1

--------------------------------------------------------------------------------

=+=+=+=+=+=+=+=+=+=+=+=+=+=+=+=+=+=+=+=+=+=+=+=+=+=+=+=+=+=+=+=+=+=+=+=+=+=+=+=+

  Source Sink

--------------------------------------------------------------------------------
          Flow Condition:   injection
                  Region:   heatpump_inject0
--------------------------------------------------------------------------------

  Flow Condition: injection
    Synchronize time with update: no
    Time units: yr
    Length units: m
      Datum:

    Sub Condition: rate
      Type: scaled volumetric rate
      Gradient:
      Data:
        Dataset: Unnamed Ascii Dataset
          Type: dataset_ascii_type
          Is transient?: yes
          Number of times:      3
          Is cyclic?: no
          Buffer:
            Rank:  2
            Dims:    1   3
            Buffer Slice Size:   0
          Array Rank:  1

    Sub Condition: temperature
      Type: dirichlet
      Gradient:
      Data:
        Dataset: Unnamed Ascii Dataset
          Type: dataset_ascii_type
          Transient: no
          Array Rank:  1

--------------------------------------------------------------------------------

 Requested processors =    16

FLOW Time Stepper
                 acceleration: on
       acceleration threshold: 5
       number of ramp entries: 5
                ramp entry #1: 2.0000
                ramp entry #2: 2.0000
                ramp entry #3: 2.0000
                ramp entry #4: 2.0000
                ramp entry #5: 2.0000
                ramp entry #6: 1.8000
                ramp entry #7: 1.6000
                ramp entry #8: 1.4000
                ramp entry #9: 1.2000
               ramp entry #10: 1.0000
               ramp entry #11: 1.0000
               ramp entry #12: 1.0000
               ramp entry #13: 1.0000
      maximum number of steps: 999999
constant time steps threshold: 5
       maximum number of cuts: 16
             reduction factor: 5.000000E-01
        maximum growth factor: 2.000000E+00

FLOW Newton Solver
                         atol: 1.000000E-50
                         rtol: 1.000000E-03
                         stol: 1.000000E-08
                         dtol: 1.000000E+04
                      maxnorm: 1.000000E+20
                    inftolres: -9.990000E+02
                    inftolupd: 1.000000E+00
                 inftolrelupd: -9.990000E+02
                 inftolsclres: -9.990000E+02
                     max iter: 50
                     min iter: 1
                         maxf: 10000
                  matrix type: baij
         precond. matrix type: baij
               inexact newton: off
            print convergence: on
   print detailed convergence: off
          check infinity norm: on

FLOW Linear Solver
                       solver: bcgs
               preconditioner: bjacobi
                         atol: 1.000000E-50
                         rtol: 1.000000E-05
                         dtol: 1.000000E+04
            maximum iteration: 10000

== TH FLOW =====================================================================
 Step      1 Time=  1.00000E-05 Dt=  1.00000E-05 [y] snes_conv_reason:   11
  newton =   1 [       1] linear =    65 [        65] cuts =  0 [   0]
  --> max chng: dpmx=   5.0763E-02 dtmpmx=   1.0228E-08

== TH FLOW =====================================================================
 Step      2 Time=  3.00000E-05 Dt=  2.00000E-05 [y] snes_conv_reason:   11
  newton =   1 [       2] linear =    89 [       154] cuts =  0 [   0]
  --> max chng: dpmx=   7.1254E-03 dtmpmx=   2.0338E-08

== TH FLOW =====================================================================
 Step      3 Time=  7.00000E-05 Dt=  4.00000E-05 [y] snes_conv_reason:   11
  newton =   1 [       3] linear =   115 [       269] cuts =  0 [   0]
  --> max chng: dpmx=   5.0389E-04 dtmpmx=   4.0659E-08

== TH FLOW =====================================================================
 Step      4 Time=  1.50000E-04 Dt=  8.00000E-05 [y] snes_conv_reason:   11
  newton =   1 [       4] linear =   119 [       388] cuts =  0 [   0]
  --> max chng: dpmx=   1.7961E-05 dtmpmx=   8.1318E-08

== TH FLOW =====================================================================
 Step      5 Time=  3.10000E-04 Dt=  1.60000E-04 [y] snes_conv_reason:   11
  newton =   1 [       5] linear =   109 [       497] cuts =  0 [   0]
  --> max chng: dpmx=   4.4680E-07 dtmpmx=   1.6264E-07

== TH FLOW =====================================================================
 Step      6 Time=  6.30000E-04 Dt=  3.20000E-04 [y] snes_conv_reason:   11
  newton =   1 [       6] linear =   122 [       619] cuts =  0 [   0]
  --> max chng: dpmx=   9.2096E-07 dtmpmx=   3.2527E-07

== TH FLOW =====================================================================
 Step      7 Time=  1.27000E-03 Dt=  6.40000E-04 [y] snes_conv_reason:   11
  newton =   1 [       7] linear =   118 [       737] cuts =  0 [   0]
  --> max chng: dpmx=   1.8897E-06 dtmpmx=   6.5054E-07

== TH FLOW =====================================================================
 Step      8 Time=  2.55000E-03 Dt=  1.28000E-03 [y] snes_conv_reason:   11
  newton =   1 [       8] linear =   118 [       855] cuts =  0 [   0]
  --> max chng: dpmx=   3.9680E-06 dtmpmx=   1.3011E-06

== TH FLOW =====================================================================
 Step      9 Time=  5.11000E-03 Dt=  2.56000E-03 [y] snes_conv_reason:   11
  newton =   1 [       9] linear =   118 [       973] cuts =  0 [   0]
  --> max chng: dpmx=   8.7154E-06 dtmpmx=   2.6022E-06

== TH FLOW =====================================================================
 Step     10 Time=  1.02300E-02 Dt=  5.12000E-03 [y] snes_conv_reason:   11
  newton =   1 [      10] linear =   122 [      1095] cuts =  0 [   0]
  --> max chng: dpmx=   2.0507E-05 dtmpmx=   5.2044E-06

== TH FLOW =====================================================================
 Step     11 Time=  2.04700E-02 Dt=  1.02400E-02 [y] snes_conv_reason:   11
  newton =   1 [      11] linear =   120 [      1215] cuts =  0 [   0]
  --> max chng: dpmx=   5.3199E-05 dtmpmx=   1.0409E-05

== TH FLOW =====================================================================
 Step     12 Time=  4.09500E-02 Dt=  2.04800E-02 [y] snes_conv_reason:   11
  newton =   1 [      12] linear =   120 [      1335] cuts =  0 [   0]
  --> max chng: dpmx=   1.5467E-04 dtmpmx=   2.0817E-05

== TH FLOW =====================================================================
 Step     13 Time=  8.19100E-02 Dt=  4.09600E-02 [y] snes_conv_reason:   11
  newton =   1 [      13] linear =   121 [      1456] cuts =  0 [   0]
  --> max chng: dpmx=   4.9610E-04 dtmpmx=   4.1635E-05

== TH FLOW =====================================================================
 Step     14 Time=  1.00000E-01 Dt=  1.80900E-02 [y] snes_conv_reason:   11
  newton =   1 [      14] linear =   120 [      1576] cuts =  0 [   0]
  --> max chng: dpmx=   2.5585E-04 dtmpmx=   1.8388E-05

== TH FLOW =====================================================================
 Step     15 Time=  1.50000E-01 Dt=  5.00000E-02 [y] snes_conv_reason:   11
  newton =   1 [      15] linear =   122 [      1698] cuts =  0 [   0]
  --> max chng: dpmx=   9.7651E-04 dtmpmx=   5.0824E-05

== TH FLOW =====================================================================
 Step     16 Time=  2.00000E-01 Dt=  5.00000E-02 [y] snes_conv_reason:   11
  newton =   1 [      16] linear =   119 [      1817] cuts =  0 [   0]
  --> max chng: dpmx=   1.2412E-03 dtmpmx=   5.0824E-05

== TH FLOW =====================================================================
 Step     17 Time=  2.50000E-01 Dt=  5.00000E-02 [y] snes_conv_reason:   11
  newton =   3 [      19] linear =   348 [      2165] cuts =  0 [   0]
  --> max chng: dpmx=   1.6621E+02 dtmpmx=   2.4136E+00

== TH FLOW =====================================================================
 Step     18 Time=  3.00000E-01 Dt=  5.00000E-02 [y] snes_conv_reason:   11
  newton =   2 [      21] linear =   239 [      2404] cuts =  0 [   0]
  --> max chng: dpmx=   1.7086E+00 dtmpmx=   9.4152E-01

== TH FLOW =====================================================================
 Step     19 Time=  3.50000E-01 Dt=  5.00000E-02 [y] snes_conv_reason:   11
  newton =   2 [      23] linear =   247 [      2651] cuts =  0 [   0]
  --> max chng: dpmx=   1.5680E+00 dtmpmx=   6.7717E-01

== TH FLOW =====================================================================
 Step     20 Time=  4.00000E-01 Dt=  5.00000E-02 [y] snes_conv_reason:   11
  newton =   2 [      25] linear =   241 [      2892] cuts =  0 [   0]
  --> max chng: dpmx=   1.4888E+00 dtmpmx=   5.5262E-01

== TH FLOW =====================================================================
 Step     21 Time=  4.50000E-01 Dt=  5.00000E-02 [y] snes_conv_reason:   11
  newton =   2 [      27] linear =   235 [      3127] cuts =  0 [   0]
  --> max chng: dpmx=   1.4339E+00 dtmpmx=   4.7415E-01

== TH FLOW =====================================================================
 Step     22 Time=  5.00000E-01 Dt=  5.00000E-02 [y] snes_conv_reason:   11
  newton =   2 [      29] linear =   213 [      3340] cuts =  0 [   0]
  --> max chng: dpmx=   1.3915E+00 dtmpmx=   4.1882E-01

== TH FLOW =====================================================================
 Step     23 Time=  5.50000E-01 Dt=  5.00000E-02 [y] snes_conv_reason:   11
  newton =   2 [      31] linear =   240 [      3580] cuts =  0 [   0]
  --> max chng: dpmx=   1.3561E+00 dtmpmx=   3.7911E-01

== TH FLOW =====================================================================
 Step     24 Time=  6.00000E-01 Dt=  5.00000E-02 [y] snes_conv_reason:   11
  newton =   2 [      33] linear =   244 [      3824] cuts =  0 [   0]
  --> max chng: dpmx=   1.3250E+00 dtmpmx=   3.4739E-01

== TH FLOW =====================================================================
 Step     25 Time=  6.50000E-01 Dt=  5.00000E-02 [y] snes_conv_reason:    3
  newton =   1 [      34] linear =   123 [      3947] cuts =  0 [   0]
  --> max chng: dpmx=   1.2961E+00 dtmpmx=   3.2134E-01

== TH FLOW =====================================================================
 Step     26 Time=  7.00000E-01 Dt=  5.00000E-02 [y] snes_conv_reason:    3
  newton =   1 [      35] linear =   120 [      4067] cuts =  0 [   0]
  --> max chng: dpmx=   1.2705E+00 dtmpmx=   2.9923E-01

== TH FLOW =====================================================================
 Step     27 Time=  7.50000E-01 Dt=  5.00000E-02 [y] snes_conv_reason:    3
  newton =   1 [      36] linear =   118 [      4185] cuts =  0 [   0]
  --> max chng: dpmx=   1.2457E+00 dtmpmx=   2.8071E-01

== TH FLOW =====================================================================
 Step     28 Time=  8.00000E-01 Dt=  5.00000E-02 [y] snes_conv_reason:    3
  newton =   1 [      37] linear =   117 [      4302] cuts =  0 [   0]
  --> max chng: dpmx=   1.2215E+00 dtmpmx=   2.6484E-01

== TH FLOW =====================================================================
 Step     29 Time=  8.50000E-01 Dt=  5.00000E-02 [y] snes_conv_reason:    3
  newton =   1 [      38] linear =   118 [      4420] cuts =  0 [   0]
  --> max chng: dpmx=   1.1988E+00 dtmpmx=   2.5070E-01

== TH FLOW =====================================================================
 Step     30 Time=  9.00000E-01 Dt=  5.00000E-02 [y] snes_conv_reason:    3
  newton =   1 [      39] linear =   121 [      4541] cuts =  0 [   0]
  --> max chng: dpmx=   1.1771E+00 dtmpmx=   2.3800E-01

== TH FLOW =====================================================================
 Step     31 Time=  9.50000E-01 Dt=  5.00000E-02 [y] snes_conv_reason:    3
  newton =   1 [      40] linear =   123 [      4664] cuts =  0 [   0]
  --> max chng: dpmx=   1.1552E+00 dtmpmx=   2.2656E-01

== TH FLOW =====================================================================
 Step     32 Time=  1.00000E+00 Dt=  5.00000E-02 [y] snes_conv_reason:    3
  newton =   1 [      41] linear =   117 [      4781] cuts =  0 [   0]
  --> max chng: dpmx=   1.1342E+00 dtmpmx=   2.1661E-01

== TH FLOW =====================================================================
 Step     33 Time=  1.05000E+00 Dt=  5.00000E-02 [y] snes_conv_reason:    3
  newton =   1 [      42] linear =   118 [      4899] cuts =  0 [   0]
  --> max chng: dpmx=   1.1137E+00 dtmpmx=   2.0745E-01

== TH FLOW =====================================================================
 Step     34 Time=  1.10000E+00 Dt=  5.00000E-02 [y] snes_conv_reason:    3
  newton =   1 [      43] linear =   116 [      5015] cuts =  0 [   0]
  --> max chng: dpmx=   1.0934E+00 dtmpmx=   1.9900E-01

== TH FLOW =====================================================================
 Step     35 Time=  1.15000E+00 Dt=  5.00000E-02 [y] snes_conv_reason:    3
  newton =   1 [      44] linear =   117 [      5132] cuts =  0 [   0]
  --> max chng: dpmx=   1.0732E+00 dtmpmx=   1.9116E-01

== TH FLOW =====================================================================
 Step     36 Time=  1.20000E+00 Dt=  5.00000E-02 [y] snes_conv_reason:    3
  newton =   1 [      45] linear =   122 [      5254] cuts =  0 [   0]
  --> max chng: dpmx=   1.0530E+00 dtmpmx=   1.8403E-01

== TH FLOW =====================================================================
 Step     37 Time=  1.25000E+00 Dt=  5.00000E-02 [y] snes_conv_reason:    3
  newton =   1 [      46] linear =   118 [      5372] cuts =  0 [   0]
  --> max chng: dpmx=   1.0337E+00 dtmpmx=   1.7753E-01

== TH FLOW =====================================================================
 Step     38 Time=  1.30000E+00 Dt=  5.00000E-02 [y] snes_conv_reason:    3
  newton =   1 [      47] linear =   116 [      5488] cuts =  0 [   0]
  --> max chng: dpmx=   1.0142E+00 dtmpmx=   1.7142E-01

== TH FLOW =====================================================================
 Step     39 Time=  1.35000E+00 Dt=  5.00000E-02 [y] snes_conv_reason:   11
  newton =   1 [      48] linear =   120 [      5608] cuts =  0 [   0]
  --> max chng: dpmx=   9.9538E-01 dtmpmx=   1.6567E-01

== TH FLOW =====================================================================
 Step     40 Time=  1.40000E+00 Dt=  5.00000E-02 [y] snes_conv_reason:   11
  newton =   1 [      49] linear =   117 [      5725] cuts =  0 [   0]
  --> max chng: dpmx=   9.7655E-01 dtmpmx=   1.6025E-01

== TH FLOW =====================================================================
 Step     41 Time=  1.45000E+00 Dt=  5.00000E-02 [y] snes_conv_reason:   11
  newton =   1 [      50] linear =   114 [      5839] cuts =  0 [   0]
  --> max chng: dpmx=   9.5710E-01 dtmpmx=   1.5533E-01

== TH FLOW =====================================================================
 Step     42 Time=  1.50000E+00 Dt=  5.00000E-02 [y] snes_conv_reason:   11
  newton =   1 [      51] linear =   120 [      5959] cuts =  0 [   0]
  --> max chng: dpmx=   9.3899E-01 dtmpmx=   1.5068E-01

== TH FLOW =====================================================================
 Step     43 Time=  1.55000E+00 Dt=  5.00000E-02 [y] snes_conv_reason:   11
  newton =   1 [      52] linear =   115 [      6074] cuts =  0 [   0]
  --> max chng: dpmx=   9.2007E-01 dtmpmx=   1.4627E-01

== TH FLOW =====================================================================
 Step     44 Time=  1.60000E+00 Dt=  5.00000E-02 [y] snes_conv_reason:   11
  newton =   1 [      53] linear =   116 [      6190] cuts =  0 [   0]
  --> max chng: dpmx=   9.0194E-01 dtmpmx=   1.4206E-01

== TH FLOW =====================================================================
 Step     45 Time=  1.65000E+00 Dt=  5.00000E-02 [y] snes_conv_reason:   11
  newton =   1 [      54] linear =   115 [      6305] cuts =  0 [   0]
  --> max chng: dpmx=   8.8324E-01 dtmpmx=   1.3810E-01

== TH FLOW =====================================================================
 Step     46 Time=  1.70000E+00 Dt=  5.00000E-02 [y] snes_conv_reason:   11
  newton =   1 [      55] linear =   117 [      6422] cuts =  0 [   0]
  --> max chng: dpmx=   8.6572E-01 dtmpmx=   1.3444E-01

== TH FLOW =====================================================================
 Step     47 Time=  1.75000E+00 Dt=  5.00000E-02 [y] snes_conv_reason:   11
  newton =   1 [      56] linear =   117 [      6539] cuts =  0 [   0]
  --> max chng: dpmx=   8.4734E-01 dtmpmx=   1.3093E-01

== TH FLOW =====================================================================
 Step     48 Time=  1.80000E+00 Dt=  5.00000E-02 [y] snes_conv_reason:   11
  newton =   1 [      57] linear =   117 [      6656] cuts =  0 [   0]
  --> max chng: dpmx=   8.2922E-01 dtmpmx=   1.2757E-01

== TH FLOW =====================================================================
 Step     49 Time=  1.85000E+00 Dt=  5.00000E-02 [y] snes_conv_reason:   11
  newton =   1 [      58] linear =   110 [      6766] cuts =  0 [   0]
  --> max chng: dpmx=   8.1147E-01 dtmpmx=   1.2435E-01

== TH FLOW =====================================================================
 Step     50 Time=  1.90000E+00 Dt=  5.00000E-02 [y] snes_conv_reason:   11
  newton =   1 [      59] linear =   113 [      6879] cuts =  0 [   0]
  --> max chng: dpmx=   7.9325E-01 dtmpmx=   1.2133E-01

== TH FLOW =====================================================================
 Step     51 Time=  1.95000E+00 Dt=  5.00000E-02 [y] snes_conv_reason:   11
  newton =   1 [      60] linear =   117 [      6996] cuts =  0 [   0]
  --> max chng: dpmx=   7.7598E-01 dtmpmx=   1.1848E-01

== TH FLOW =====================================================================
 Step     52 Time=  2.00000E+00 Dt=  5.00000E-02 [y] snes_conv_reason:   11
  newton =   1 [      61] linear =   120 [      7116] cuts =  0 [   0]
  --> max chng: dpmx=   7.5807E-01 dtmpmx=   1.1573E-01

== TH FLOW =====================================================================
 Step     53 Time=  2.05000E+00 Dt=  5.00000E-02 [y] snes_conv_reason:   11
  newton =   1 [      62] linear =   109 [      7225] cuts =  0 [   0]
  --> max chng: dpmx=   7.4028E-01 dtmpmx=   1.1309E-01

== TH FLOW =====================================================================
 Step     54 Time=  2.10000E+00 Dt=  5.00000E-02 [y] snes_conv_reason:   11
  newton =   1 [      63] linear =   113 [      7338] cuts =  0 [   0]
  --> max chng: dpmx=   7.2331E-01 dtmpmx=   1.1053E-01

== TH FLOW =====================================================================
 Step     55 Time=  2.15000E+00 Dt=  5.00000E-02 [y] snes_conv_reason:   11
  newton =   1 [      64] linear =   115 [      7453] cuts =  0 [   0]
  --> max chng: dpmx=   7.0569E-01 dtmpmx=   1.0816E-01

== TH FLOW =====================================================================
 Step     56 Time=  2.20000E+00 Dt=  5.00000E-02 [y] snes_conv_reason:   11
  newton =   1 [      65] linear =   111 [      7564] cuts =  0 [   0]
  --> max chng: dpmx=   6.8801E-01 dtmpmx=   1.0587E-01

== TH FLOW =====================================================================
 Step     57 Time=  2.25000E+00 Dt=  5.00000E-02 [y] snes_conv_reason:   11
  newton =   1 [      66] linear =   114 [      7678] cuts =  0 [   0]
  --> max chng: dpmx=   6.7081E-01 dtmpmx=   1.0366E-01

== TH FLOW =====================================================================
 Step     58 Time=  2.30000E+00 Dt=  5.00000E-02 [y] snes_conv_reason:   11
  newton =   1 [      67] linear =   113 [      7791] cuts =  0 [   0]
  --> max chng: dpmx=   6.5359E-01 dtmpmx=   1.0152E-01

== TH FLOW =====================================================================
 Step     59 Time=  2.35000E+00 Dt=  5.00000E-02 [y] snes_conv_reason:   11
  newton =   1 [      68] linear =   113 [      7904] cuts =  0 [   0]
  --> max chng: dpmx=   6.3588E-01 dtmpmx=   9.9462E-02

== TH FLOW =====================================================================
 Step     60 Time=  2.40000E+00 Dt=  5.00000E-02 [y] snes_conv_reason:   11
  newton =   1 [      69] linear =   113 [      8017] cuts =  0 [   0]
  --> max chng: dpmx=   6.1938E-01 dtmpmx=   9.7532E-02

== TH FLOW =====================================================================
 Step     61 Time=  2.45000E+00 Dt=  5.00000E-02 [y] snes_conv_reason:   11
  newton =   1 [      70] linear =   113 [      8130] cuts =  0 [   0]
  --> max chng: dpmx=   6.1428E-01 dtmpmx=   9.5657E-02

== TH FLOW =====================================================================
 Step     62 Time=  2.50000E+00 Dt=  5.00000E-02 [y] snes_conv_reason:   11
  newton =   1 [      71] linear =    88 [      8218] cuts =  0 [   0]
  --> max chng: dpmx=   6.2625E-01 dtmpmx=   9.3837E-02

== TH FLOW =====================================================================
 Step     63 Time=  2.55000E+00 Dt=  5.00000E-02 [y] snes_conv_reason:   11
  newton =   1 [      72] linear =   108 [      8326] cuts =  0 [   0]
  --> max chng: dpmx=   6.3829E-01 dtmpmx=   9.2068E-02

== TH FLOW =====================================================================
 Step     64 Time=  2.60000E+00 Dt=  5.00000E-02 [y] snes_conv_reason:   11
  newton =   1 [      73] linear =   114 [      8440] cuts =  0 [   0]
  --> max chng: dpmx=   6.5041E-01 dtmpmx=   9.0387E-02

== TH FLOW =====================================================================
 Step     65 Time=  2.65000E+00 Dt=  5.00000E-02 [y] snes_conv_reason:   11
  newton =   1 [      74] linear =   116 [      8556] cuts =  0 [   0]
  --> max chng: dpmx=   6.6250E-01 dtmpmx=   8.8780E-02

== TH FLOW =====================================================================
 Step     66 Time=  2.70000E+00 Dt=  5.00000E-02 [y] snes_conv_reason:   11
  newton =   1 [      75] linear =   114 [      8670] cuts =  0 [   0]
  --> max chng: dpmx=   6.7467E-01 dtmpmx=   8.7216E-02

== TH FLOW =====================================================================
 Step     67 Time=  2.75000E+00 Dt=  5.00000E-02 [y] snes_conv_reason:   11
  newton =   1 [      76] linear =   114 [      8784] cuts =  0 [   0]
  --> max chng: dpmx=   6.8684E-01 dtmpmx=   8.5692E-02

== TH FLOW =====================================================================
 Step     68 Time=  2.80000E+00 Dt=  5.00000E-02 [y] snes_conv_reason:   11
  newton =   1 [      77] linear =   119 [      8903] cuts =  0 [   0]
  --> max chng: dpmx=   6.9910E-01 dtmpmx=   8.4208E-02

== TH FLOW =====================================================================
 Step     69 Time=  2.85000E+00 Dt=  5.00000E-02 [y] snes_conv_reason:   11
  newton =   1 [      78] linear =   114 [      9017] cuts =  0 [   0]
  --> max chng: dpmx=   7.1147E-01 dtmpmx=   8.2810E-02

== TH FLOW =====================================================================
 Step     70 Time=  2.90000E+00 Dt=  5.00000E-02 [y] snes_conv_reason:   11
  newton =   1 [      79] linear =   114 [      9131] cuts =  0 [   0]
  --> max chng: dpmx=   7.2369E-01 dtmpmx=   8.1453E-02

== TH FLOW =====================================================================
 Step     71 Time=  2.95000E+00 Dt=  5.00000E-02 [y] snes_conv_reason:   11
  newton =   1 [      80] linear =   112 [      9243] cuts =  0 [   0]
  --> max chng: dpmx=   7.3605E-01 dtmpmx=   8.0128E-02

== TH FLOW =====================================================================
 Step     72 Time=  3.00000E+00 Dt=  5.00000E-02 [y] snes_conv_reason:   11
  newton =   1 [      81] linear =   117 [      9360] cuts =  0 [   0]
  --> max chng: dpmx=   7.4850E-01 dtmpmx=   7.8834E-02

== TH FLOW =====================================================================
 Step     73 Time=  3.05000E+00 Dt=  5.00000E-02 [y] snes_conv_reason:   11
  newton =   1 [      82] linear =   114 [      9474] cuts =  0 [   0]
  --> max chng: dpmx=   7.6093E-01 dtmpmx=   7.7579E-02

== TH FLOW =====================================================================
 Step     74 Time=  3.10000E+00 Dt=  5.00000E-02 [y] snes_conv_reason:   11
  newton =   1 [      83] linear =   114 [      9588] cuts =  0 [   0]
  --> max chng: dpmx=   7.7337E-01 dtmpmx=   7.6393E-02

== TH FLOW =====================================================================
 Step     75 Time=  3.15000E+00 Dt=  5.00000E-02 [y] snes_conv_reason:   11
  newton =   1 [      84] linear =   110 [      9698] cuts =  0 [   0]
  --> max chng: dpmx=   7.8601E-01 dtmpmx=   7.5232E-02

== TH FLOW =====================================================================
 Step     76 Time=  3.20000E+00 Dt=  5.00000E-02 [y] snes_conv_reason:   11
  newton =   1 [      85] linear =   111 [      9809] cuts =  0 [   0]
  --> max chng: dpmx=   7.9829E-01 dtmpmx=   7.4096E-02

== TH FLOW =====================================================================
 Step     77 Time=  3.25000E+00 Dt=  5.00000E-02 [y] snes_conv_reason:   11
  newton =   1 [      86] linear =    96 [      9905] cuts =  0 [   0]
  --> max chng: dpmx=   8.1100E-01 dtmpmx=   7.2984E-02

== TH FLOW =====================================================================
 Step     78 Time=  3.30000E+00 Dt=  5.00000E-02 [y] snes_conv_reason:   11
  newton =   1 [      87] linear =   112 [     10017] cuts =  0 [   0]
  --> max chng: dpmx=   8.2340E-01 dtmpmx=   7.1917E-02

== TH FLOW =====================================================================
 Step     79 Time=  3.35000E+00 Dt=  5.00000E-02 [y] snes_conv_reason:   11
  newton =   1 [      88] linear =   112 [     10129] cuts =  0 [   0]
  --> max chng: dpmx=   8.3611E-01 dtmpmx=   7.0892E-02

== TH FLOW =====================================================================
 Step     80 Time=  3.40000E+00 Dt=  5.00000E-02 [y] snes_conv_reason:   11
  newton =   1 [      89] linear =   113 [     10242] cuts =  0 [   0]
  --> max chng: dpmx=   8.4888E-01 dtmpmx=   6.9888E-02

== TH FLOW =====================================================================
 Step     81 Time=  3.45000E+00 Dt=  5.00000E-02 [y] snes_conv_reason:   11
  newton =   1 [      90] linear =   114 [     10356] cuts =  0 [   0]
  --> max chng: dpmx=   8.6127E-01 dtmpmx=   6.8904E-02

== TH FLOW =====================================================================
 Step     82 Time=  3.50000E+00 Dt=  5.00000E-02 [y] snes_conv_reason:   11
  newton =   1 [      91] linear =   106 [     10462] cuts =  0 [   0]
  --> max chng: dpmx=   8.7379E-01 dtmpmx=   6.7939E-02

== TH FLOW =====================================================================
 Step     83 Time=  3.55000E+00 Dt=  5.00000E-02 [y] snes_conv_reason:   11
  newton =   1 [      92] linear =   116 [     10578] cuts =  0 [   0]
  --> max chng: dpmx=   8.8666E-01 dtmpmx=   6.7022E-02

== TH FLOW =====================================================================
 Step     84 Time=  3.60000E+00 Dt=  5.00000E-02 [y] snes_conv_reason:   11
  newton =   1 [      93] linear =   109 [     10687] cuts =  0 [   0]
  --> max chng: dpmx=   8.9919E-01 dtmpmx=   6.6128E-02

== TH FLOW =====================================================================
 Step     85 Time=  3.65000E+00 Dt=  5.00000E-02 [y] snes_conv_reason:   11
  newton =   1 [      94] linear =   111 [     10798] cuts =  0 [   0]
  --> max chng: dpmx=   9.1187E-01 dtmpmx=   6.5251E-02

== TH FLOW =====================================================================
 Step     86 Time=  3.70000E+00 Dt=  5.00000E-02 [y] snes_conv_reason:   11
  newton =   1 [      95] linear =   113 [     10911] cuts =  0 [   0]
  --> max chng: dpmx=   9.2418E-01 dtmpmx=   6.4390E-02

== TH FLOW =====================================================================
 Step     87 Time=  3.75000E+00 Dt=  5.00000E-02 [y] snes_conv_reason:   11
  newton =   1 [      96] linear =   112 [     11023] cuts =  0 [   0]
  --> max chng: dpmx=   9.3677E-01 dtmpmx=   6.3549E-02

== TH FLOW =====================================================================
 Step     88 Time=  3.80000E+00 Dt=  5.00000E-02 [y] snes_conv_reason:   11
  newton =   1 [      97] linear =   112 [     11135] cuts =  0 [   0]
  --> max chng: dpmx=   9.4930E-01 dtmpmx=   6.2750E-02

== TH FLOW =====================================================================
 Step     89 Time=  3.85000E+00 Dt=  5.00000E-02 [y] snes_conv_reason:   11
  newton =   1 [      98] linear =   113 [     11248] cuts =  0 [   0]
  --> max chng: dpmx=   9.6152E-01 dtmpmx=   6.1964E-02

== TH FLOW =====================================================================
 Step     90 Time=  3.90000E+00 Dt=  5.00000E-02 [y] snes_conv_reason:   11
  newton =   1 [      99] linear =   110 [     11358] cuts =  0 [   0]
  --> max chng: dpmx=   9.7351E-01 dtmpmx=   6.1192E-02

== TH FLOW =====================================================================
 Step     91 Time=  3.95000E+00 Dt=  5.00000E-02 [y] snes_conv_reason:   11
  newton =   1 [     100] linear =   109 [     11467] cuts =  0 [   0]
  --> max chng: dpmx=   9.8553E-01 dtmpmx=   6.0433E-02

== TH FLOW =====================================================================
 Step     92 Time=  4.00000E+00 Dt=  5.00000E-02 [y] snes_conv_reason:   11
  newton =   1 [     101] linear =   114 [     11581] cuts =  0 [   0]
  --> max chng: dpmx=   9.9713E-01 dtmpmx=   5.9698E-02

== TH FLOW =====================================================================
 Step     93 Time=  4.05000E+00 Dt=  5.00000E-02 [y] snes_conv_reason:    3
  newton =   1 [     102] linear =   109 [     11690] cuts =  0 [   0]
  --> max chng: dpmx=   1.0085E+00 dtmpmx=   5.8991E-02

== TH FLOW =====================================================================
 Step     94 Time=  4.10000E+00 Dt=  5.00000E-02 [y] snes_conv_reason:    3
  newton =   1 [     103] linear =   109 [     11799] cuts =  0 [   0]
  --> max chng: dpmx=   1.0192E+00 dtmpmx=   5.8295E-02

== TH FLOW =====================================================================
 Step     95 Time=  4.15000E+00 Dt=  5.00000E-02 [y] snes_conv_reason:    3
  newton =   1 [     104] linear =   109 [     11908] cuts =  0 [   0]
  --> max chng: dpmx=   1.0292E+00 dtmpmx=   5.7610E-02

== TH FLOW =====================================================================
 Step     96 Time=  4.20000E+00 Dt=  5.00000E-02 [y] snes_conv_reason:    3
  newton =   1 [     105] linear =   107 [     12015] cuts =  0 [   0]
  --> max chng: dpmx=   1.0390E+00 dtmpmx=   5.6935E-02

== TH FLOW =====================================================================
 Step     97 Time=  4.25000E+00 Dt=  5.00000E-02 [y] snes_conv_reason:    3
  newton =   1 [     106] linear =   104 [     12119] cuts =  0 [   0]
  --> max chng: dpmx=   1.0480E+00 dtmpmx=   5.6290E-02

== TH FLOW =====================================================================
 Step     98 Time=  4.30000E+00 Dt=  5.00000E-02 [y] snes_conv_reason:    3
  newton =   1 [     107] linear =   104 [     12223] cuts =  0 [   0]
  --> max chng: dpmx=   1.0558E+00 dtmpmx=   5.5660E-02

== TH FLOW =====================================================================
 Step     99 Time=  4.35000E+00 Dt=  5.00000E-02 [y] snes_conv_reason:    3
  newton =   1 [     108] linear =    98 [     12321] cuts =  0 [   0]
  --> max chng: dpmx=   1.0620E+00 dtmpmx=   5.5039E-02

== TH FLOW =====================================================================
 Step    100 Time=  4.40000E+00 Dt=  5.00000E-02 [y] snes_conv_reason:    3
  newton =   1 [     109] linear =   108 [     12429] cuts =  0 [   0]
  --> max chng: dpmx=   1.0679E+00 dtmpmx=   5.4427E-02

== TH FLOW =====================================================================
 Step    101 Time=  4.45000E+00 Dt=  5.00000E-02 [y] snes_conv_reason:    3
  newton =   1 [     110] linear =   107 [     12536] cuts =  0 [   0]
  --> max chng: dpmx=   1.0716E+00 dtmpmx=   5.3825E-02

== TH FLOW =====================================================================
 Step    102 Time=  4.50000E+00 Dt=  5.00000E-02 [y] snes_conv_reason:    3
  newton =   1 [     111] linear =   109 [     12645] cuts =  0 [   0]
  --> max chng: dpmx=   1.0740E+00 dtmpmx=   5.3252E-02

== TH FLOW =====================================================================
 Step    103 Time=  4.55000E+00 Dt=  5.00000E-02 [y] snes_conv_reason:    3
  newton =   1 [     112] linear =   109 [     12754] cuts =  0 [   0]
  --> max chng: dpmx=   1.0745E+00 dtmpmx=   5.2687E-02

== TH FLOW =====================================================================
 Step    104 Time=  4.60000E+00 Dt=  5.00000E-02 [y] snes_conv_reason:    3
  newton =   1 [     113] linear =   115 [     12869] cuts =  0 [   0]
  --> max chng: dpmx=   1.0722E+00 dtmpmx=   5.2130E-02

== TH FLOW =====================================================================
 Step    105 Time=  4.65000E+00 Dt=  5.00000E-02 [y] snes_conv_reason:    3
  newton =   1 [     114] linear =   114 [     12983] cuts =  0 [   0]
  --> max chng: dpmx=   1.0683E+00 dtmpmx=   5.1579E-02

== TH FLOW =====================================================================
 Step    106 Time=  4.70000E+00 Dt=  5.00000E-02 [y] snes_conv_reason:    3
  newton =   1 [     115] linear =   112 [     13095] cuts =  0 [   0]
  --> max chng: dpmx=   1.0615E+00 dtmpmx=   5.1044E-02

== TH FLOW =====================================================================
 Step    107 Time=  4.75000E+00 Dt=  5.00000E-02 [y] snes_conv_reason:    3
  newton =   1 [     116] linear =   111 [     13206] cuts =  0 [   0]
  --> max chng: dpmx=   1.0520E+00 dtmpmx=   5.0528E-02

== TH FLOW =====================================================================
 Step    108 Time=  4.80000E+00 Dt=  5.00000E-02 [y] snes_conv_reason:    3
  newton =   1 [     117] linear =   111 [     13317] cuts =  0 [   0]
  --> max chng: dpmx=   1.0399E+00 dtmpmx=   5.0018E-02

== TH FLOW =====================================================================
 Step    109 Time=  4.85000E+00 Dt=  5.00000E-02 [y] snes_conv_reason:    3
  newton =   1 [     118] linear =   102 [     13419] cuts =  0 [   0]
  --> max chng: dpmx=   1.0245E+00 dtmpmx=   4.9514E-02

== TH FLOW =====================================================================
 Step    110 Time=  4.90000E+00 Dt=  5.00000E-02 [y] snes_conv_reason:    3
  newton =   1 [     119] linear =   115 [     13534] cuts =  0 [   0]
  --> max chng: dpmx=   1.0064E+00 dtmpmx=   4.9017E-02

== TH FLOW =====================================================================
 Step    111 Time=  4.95000E+00 Dt=  5.00000E-02 [y] snes_conv_reason:   11
  newton =   1 [     120] linear =   111 [     13645] cuts =  0 [   0]
  --> max chng: dpmx=   9.8489E-01 dtmpmx=   4.8538E-02

== TH FLOW =====================================================================
 Step    112 Time=  5.00000E+00 Dt=  5.00000E-02 [y] snes_conv_reason:   11
  newton =   1 [     121] linear =   116 [     13761] cuts =  0 [   0]
  --> max chng: dpmx=   9.6047E-01 dtmpmx=   4.8070E-02

== TH FLOW =====================================================================
 Step    113 Time=  5.05000E+00 Dt=  5.00000E-02 [y] snes_conv_reason:   11
  newton =   1 [     122] linear =   113 [     13874] cuts =  0 [   0]
  --> max chng: dpmx=   9.3308E-01 dtmpmx=   4.7608E-02

== TH FLOW =====================================================================
 Step    114 Time=  5.10000E+00 Dt=  5.00000E-02 [y] snes_conv_reason:   11
  newton =   1 [     123] linear =   114 [     13988] cuts =  0 [   0]
  --> max chng: dpmx=   9.0266E-01 dtmpmx=   4.7150E-02

== TH FLOW =====================================================================
 Step    115 Time=  5.15000E+00 Dt=  5.00000E-02 [y] snes_conv_reason:   11
  newton =   1 [     124] linear =   114 [     14102] cuts =  0 [   0]
  --> max chng: dpmx=   8.6969E-01 dtmpmx=   4.6699E-02

== TH FLOW =====================================================================
 Step    116 Time=  5.20000E+00 Dt=  5.00000E-02 [y] snes_conv_reason:   11
  newton =   1 [     125] linear =   112 [     14214] cuts =  0 [   0]
  --> max chng: dpmx=   8.3423E-01 dtmpmx=   4.6268E-02

== TH FLOW =====================================================================
 Step    117 Time=  5.25000E+00 Dt=  5.00000E-02 [y] snes_conv_reason:   11
  newton =   1 [     126] linear =   117 [     14331] cuts =  0 [   0]
  --> max chng: dpmx=   7.9654E-01 dtmpmx=   4.5842E-02

== TH FLOW =====================================================================
 Step    118 Time=  5.30000E+00 Dt=  5.00000E-02 [y] snes_conv_reason:   11
  newton =   1 [     127] linear =   112 [     14443] cuts =  0 [   0]
  --> max chng: dpmx=   7.5700E-01 dtmpmx=   4.5420E-02

== TH FLOW =====================================================================
 Step    119 Time=  5.35000E+00 Dt=  5.00000E-02 [y] snes_conv_reason:   11
  newton =   1 [     128] linear =   117 [     14560] cuts =  0 [   0]
  --> max chng: dpmx=   7.1608E-01 dtmpmx=   4.5003E-02

== TH FLOW =====================================================================
 Step    120 Time=  5.40000E+00 Dt=  5.00000E-02 [y] snes_conv_reason:   11
  newton =   1 [     129] linear =   115 [     14675] cuts =  0 [   0]
  --> max chng: dpmx=   6.7400E-01 dtmpmx=   4.4595E-02

== TH FLOW =====================================================================
 Step    121 Time=  5.45000E+00 Dt=  5.00000E-02 [y] snes_conv_reason:   11
  newton =   1 [     130] linear =   113 [     14788] cuts =  0 [   0]
  --> max chng: dpmx=   6.3115E-01 dtmpmx=   4.4199E-02

== TH FLOW =====================================================================
 Step    122 Time=  5.50000E+00 Dt=  5.00000E-02 [y] snes_conv_reason:   11
  newton =   1 [     131] linear =   115 [     14903] cuts =  0 [   0]
  --> max chng: dpmx=   5.8817E-01 dtmpmx=   4.3668E-02

== TH FLOW =====================================================================
 Step    123 Time=  5.55000E+00 Dt=  5.00000E-02 [y] snes_conv_reason:   11
  newton =   1 [     132] linear =   116 [     15019] cuts =  0 [   0]
  --> max chng: dpmx=   5.4529E-01 dtmpmx=   4.2813E-02

== TH FLOW =====================================================================
 Step    124 Time=  5.60000E+00 Dt=  5.00000E-02 [y] snes_conv_reason:   11
  newton =   1 [     133] linear =   119 [     15138] cuts =  0 [   0]
  --> max chng: dpmx=   5.0290E-01 dtmpmx=   4.1658E-02

== TH FLOW =====================================================================
 Step    125 Time=  5.65000E+00 Dt=  5.00000E-02 [y] snes_conv_reason:   11
  newton =   1 [     134] linear =   122 [     15260] cuts =  0 [   0]
  --> max chng: dpmx=   4.6135E-01 dtmpmx=   4.0321E-02

== TH FLOW =====================================================================
 Step    126 Time=  5.70000E+00 Dt=  5.00000E-02 [y] snes_conv_reason:   11
  newton =   1 [     135] linear =   118 [     15378] cuts =  0 [   0]
  --> max chng: dpmx=   4.2097E-01 dtmpmx=   3.8789E-02

== TH FLOW =====================================================================
 Step    127 Time=  5.75000E+00 Dt=  5.00000E-02 [y] snes_conv_reason:   11
  newton =   1 [     136] linear =   117 [     15495] cuts =  0 [   0]
  --> max chng: dpmx=   3.8230E-01 dtmpmx=   3.7045E-02

== TH FLOW =====================================================================
 Step    128 Time=  5.80000E+00 Dt=  5.00000E-02 [y] snes_conv_reason:   11
  newton =   1 [     137] linear =   118 [     15613] cuts =  0 [   0]
  --> max chng: dpmx=   3.4511E-01 dtmpmx=   3.5128E-02

== TH FLOW =====================================================================
 Step    129 Time=  5.85000E+00 Dt=  5.00000E-02 [y] snes_conv_reason:   11
  newton =   1 [     138] linear =   120 [     15733] cuts =  0 [   0]
  --> max chng: dpmx=   3.1008E-01 dtmpmx=   3.3079E-02

== TH FLOW =====================================================================
 Step    130 Time=  5.90000E+00 Dt=  5.00000E-02 [y] snes_conv_reason:   11
  newton =   1 [     139] linear =   120 [     15853] cuts =  0 [   0]
  --> max chng: dpmx=   2.7702E-01 dtmpmx=   3.0936E-02

== TH FLOW =====================================================================
 Step    131 Time=  5.95000E+00 Dt=  5.00000E-02 [y] snes_conv_reason:   11
  newton =   1 [     140] linear =   118 [     15971] cuts =  0 [   0]
  --> max chng: dpmx=   2.4622E-01 dtmpmx=   2.8737E-02

== TH FLOW =====================================================================
 Step    132 Time=  6.00000E+00 Dt=  5.00000E-02 [y] snes_conv_reason:   11
  newton =   1 [     141] linear =   120 [     16091] cuts =  0 [   0]
  --> max chng: dpmx=   2.1776E-01 dtmpmx=   2.6519E-02

== TH FLOW =====================================================================
 Step    133 Time=  6.05000E+00 Dt=  5.00000E-02 [y] snes_conv_reason:   11
  newton =   1 [     142] linear =   118 [     16209] cuts =  0 [   0]
  --> max chng: dpmx=   1.9147E-01 dtmpmx=   2.4314E-02

== TH FLOW =====================================================================
 Step    134 Time=  6.10000E+00 Dt=  5.00000E-02 [y] snes_conv_reason:   11
  newton =   1 [     143] linear =   121 [     16330] cuts =  0 [   0]
  --> max chng: dpmx=   1.6755E-01 dtmpmx=   2.2151E-02

== TH FLOW =====================================================================
 Step    135 Time=  6.15000E+00 Dt=  5.00000E-02 [y] snes_conv_reason:   11
  newton =   1 [     144] linear =   120 [     16450] cuts =  0 [   0]
  --> max chng: dpmx=   1.4584E-01 dtmpmx=   2.0055E-02

== TH FLOW =====================================================================
 Step    136 Time=  6.20000E+00 Dt=  5.00000E-02 [y] snes_conv_reason:   11
  newton =   1 [     145] linear =   120 [     16570] cuts =  0 [   0]
  --> max chng: dpmx=   1.2629E-01 dtmpmx=   1.8046E-02

== TH FLOW =====================================================================
 Step    137 Time=  6.25000E+00 Dt=  5.00000E-02 [y] snes_conv_reason:   11
  newton =   1 [     146] linear =   120 [     16690] cuts =  0 [   0]
  --> max chng: dpmx=   1.0881E-01 dtmpmx=   1.6141E-02

== TH FLOW =====================================================================
 Step    138 Time=  6.30000E+00 Dt=  5.00000E-02 [y] snes_conv_reason:   11
  newton =   1 [     147] linear =   123 [     16813] cuts =  0 [   0]
  --> max chng: dpmx=   9.3229E-02 dtmpmx=   1.4352E-02

== TH FLOW =====================================================================
 Step    139 Time=  6.35000E+00 Dt=  5.00000E-02 [y] snes_conv_reason:   11
  newton =   1 [     148] linear =   120 [     16933] cuts =  0 [   0]
  --> max chng: dpmx=   7.9472E-02 dtmpmx=   1.2687E-02

== TH FLOW =====================================================================
 Step    140 Time=  6.40000E+00 Dt=  5.00000E-02 [y] snes_conv_reason:   11
  newton =   1 [     149] linear =   121 [     17054] cuts =  0 [   0]
  --> max chng: dpmx=   6.7431E-02 dtmpmx=   1.1151E-02

== TH FLOW =====================================================================
 Step    141 Time=  6.45000E+00 Dt=  5.00000E-02 [y] snes_conv_reason:   11
  newton =   1 [     150] linear =   118 [     17172] cuts =  0 [   0]
  --> max chng: dpmx=   5.6904E-02 dtmpmx=   9.7451E-03

== TH FLOW =====================================================================
 Step    142 Time=  6.50000E+00 Dt=  5.00000E-02 [y] snes_conv_reason:   11
  newton =   1 [     151] linear =   123 [     17295] cuts =  0 [   0]
  --> max chng: dpmx=   4.7760E-02 dtmpmx=   8.4693E-03

== TH FLOW =====================================================================
 Step    143 Time=  6.55000E+00 Dt=  5.00000E-02 [y] snes_conv_reason:   11
  newton =   1 [     152] linear =   122 [     17417] cuts =  0 [   0]
  --> max chng: dpmx=   3.9880E-02 dtmpmx=   7.3199E-03

== TH FLOW =====================================================================
 Step    144 Time=  6.60000E+00 Dt=  5.00000E-02 [y] snes_conv_reason:   11
  newton =   1 [     153] linear =   124 [     17541] cuts =  0 [   0]
  --> max chng: dpmx=   3.3134E-02 dtmpmx=   6.2919E-03

== TH FLOW =====================================================================
 Step    145 Time=  6.65000E+00 Dt=  5.00000E-02 [y] snes_conv_reason:   11
  newton =   1 [     154] linear =   124 [     17665] cuts =  0 [   0]
  --> max chng: dpmx=   2.7379E-02 dtmpmx=   5.3789E-03

== TH FLOW =====================================================================
 Step    146 Time=  6.70000E+00 Dt=  5.00000E-02 [y] snes_conv_reason:   11
  newton =   1 [     155] linear =   127 [     17792] cuts =  0 [   0]
  --> max chng: dpmx=   2.2493E-02 dtmpmx=   4.5735E-03

== TH FLOW =====================================================================
 Step    147 Time=  6.75000E+00 Dt=  5.00000E-02 [y] snes_conv_reason:   11
  newton =   1 [     156] linear =   125 [     17917] cuts =  0 [   0]
  --> max chng: dpmx=   1.8382E-02 dtmpmx=   3.8676E-03

== TH FLOW =====================================================================
 Step    148 Time=  6.80000E+00 Dt=  5.00000E-02 [y] snes_conv_reason:   11
  newton =   1 [     157] linear =   126 [     18043] cuts =  0 [   0]
  --> max chng: dpmx=   1.4937E-02 dtmpmx=   3.2529E-03

== TH FLOW =====================================================================
 Step    149 Time=  6.85000E+00 Dt=  5.00000E-02 [y] snes_conv_reason:   11
  newton =   1 [     158] linear =   123 [     18166] cuts =  0 [   0]
  --> max chng: dpmx=   1.2062E-02 dtmpmx=   2.7210E-03

== TH FLOW =====================================================================
 Step    150 Time=  6.90000E+00 Dt=  5.00000E-02 [y] snes_conv_reason:   11
  newton =   1 [     159] linear =   126 [     18292] cuts =  0 [   0]
  --> max chng: dpmx=   9.6794E-03 dtmpmx=   2.2633E-03

== TH FLOW =====================================================================
 Step    151 Time=  6.95000E+00 Dt=  5.00000E-02 [y] snes_conv_reason:   11
  newton =   1 [     160] linear =   123 [     18415] cuts =  0 [   0]
  --> max chng: dpmx=   7.7175E-03 dtmpmx=   1.8720E-03

== TH FLOW =====================================================================
 Step    152 Time=  7.00000E+00 Dt=  5.00000E-02 [y] snes_conv_reason:   11
  newton =   1 [     161] linear =   124 [     18539] cuts =  0 [   0]
  --> max chng: dpmx=   6.1098E-03 dtmpmx=   1.5392E-03

== TH FLOW =====================================================================
 Step    153 Time=  7.05000E+00 Dt=  5.00000E-02 [y] snes_conv_reason:   11
  newton =   1 [     162] linear =   127 [     18666] cuts =  0 [   0]
  --> max chng: dpmx=   4.7993E-03 dtmpmx=   1.2579E-03

== TH FLOW =====================================================================
 Step    154 Time=  7.10000E+00 Dt=  5.00000E-02 [y] snes_conv_reason:   11
  newton =   1 [     163] linear =   122 [     18788] cuts =  0 [   0]
  --> max chng: dpmx=   3.7385E-03 dtmpmx=   1.0213E-03

== TH FLOW =====================================================================
 Step    155 Time=  7.15000E+00 Dt=  5.00000E-02 [y] snes_conv_reason:   11
  newton =   1 [     164] linear =   122 [     18910] cuts =  0 [   0]
  --> max chng: dpmx=   2.8860E-03 dtmpmx=   8.2347E-04

== TH FLOW =====================================================================
 Step    156 Time=  7.20000E+00 Dt=  5.00000E-02 [y] snes_conv_reason:   11
  newton =   1 [     165] linear =   123 [     19033] cuts =  0 [   0]
  --> max chng: dpmx=   2.2051E-03 dtmpmx=   6.5886E-04

== TH FLOW =====================================================================
 Step    157 Time=  7.25000E+00 Dt=  5.00000E-02 [y] snes_conv_reason:   11
  newton =   1 [     166] linear =   122 [     19155] cuts =  0 [   0]
  --> max chng: dpmx=   1.6646E-03 dtmpmx=   5.2262E-04

== TH FLOW =====================================================================
 Step    158 Time=  7.30000E+00 Dt=  5.00000E-02 [y] snes_conv_reason:   11
  newton =   1 [     167] linear =   120 [     19275] cuts =  0 [   0]
  --> max chng: dpmx=   1.7999E-03 dtmpmx=   4.1044E-04

== TH FLOW =====================================================================
 Step    159 Time=  7.35000E+00 Dt=  5.00000E-02 [y] snes_conv_reason:   11
  newton =   1 [     168] linear =   123 [     19398] cuts =  0 [   0]
  --> max chng: dpmx=   1.9629E-03 dtmpmx=   3.1852E-04

== TH FLOW =====================================================================
 Step    160 Time=  7.40000E+00 Dt=  5.00000E-02 [y] snes_conv_reason:   11
  newton =   1 [     169] linear =   124 [     19522] cuts =  0 [   0]
  --> max chng: dpmx=   2.0950E-03 dtmpmx=   2.4356E-04

== TH FLOW =====================================================================
 Step    161 Time=  7.45000E+00 Dt=  5.00000E-02 [y] snes_conv_reason:   11
  newton =   1 [     170] linear =   118 [     19640] cuts =  0 [   0]
  --> max chng: dpmx=   2.2016E-03 dtmpmx=   1.8273E-04

== TH FLOW =====================================================================
 Step    162 Time=  7.50000E+00 Dt=  5.00000E-02 [y] snes_conv_reason:   11
  newton =   1 [     171] linear =   121 [     19761] cuts =  0 [   0]
  --> max chng: dpmx=   2.2862E-03 dtmpmx=   1.3359E-04

== TH FLOW =====================================================================
 Step    163 Time=  7.55000E+00 Dt=  5.00000E-02 [y] snes_conv_reason:   11
  newton =   1 [     172] linear =   112 [     19873] cuts =  0 [   0]
  --> max chng: dpmx=   2.3523E-03 dtmpmx=   9.4065E-05

== TH FLOW =====================================================================
 Step    164 Time=  7.60000E+00 Dt=  5.00000E-02 [y] snes_conv_reason:   11
  newton =   1 [     173] linear =   110 [     19983] cuts =  0 [   0]
  --> max chng: dpmx=   2.4030E-03 dtmpmx=   6.2415E-05

== TH FLOW =====================================================================
 Step    165 Time=  7.65000E+00 Dt=  5.00000E-02 [y] snes_conv_reason:   11
  newton =   1 [     174] linear =   106 [     20089] cuts =  0 [   0]
  --> max chng: dpmx=   2.4418E-03 dtmpmx=   6.1841E-05

== TH FLOW =====================================================================
 Step    166 Time=  7.70000E+00 Dt=  5.00000E-02 [y] snes_conv_reason:   11
  newton =   1 [     175] linear =   111 [     20200] cuts =  0 [   0]
  --> max chng: dpmx=   2.4688E-03 dtmpmx=   6.1766E-05

== TH FLOW =====================================================================
 Step    167 Time=  7.75000E+00 Dt=  5.00000E-02 [y] snes_conv_reason:   11
  newton =   1 [     176] linear =   104 [     20304] cuts =  0 [   0]
  --> max chng: dpmx=   2.4882E-03 dtmpmx=   6.1690E-05

== TH FLOW =====================================================================
 Step    168 Time=  7.80000E+00 Dt=  5.00000E-02 [y] snes_conv_reason:   11
  newton =   1 [     177] linear =   111 [     20415] cuts =  0 [   0]
  --> max chng: dpmx=   2.5006E-03 dtmpmx=   6.1610E-05

== TH FLOW =====================================================================
 Step    169 Time=  7.85000E+00 Dt=  5.00000E-02 [y] snes_conv_reason:   11
  newton =   1 [     178] linear =   108 [     20523] cuts =  0 [   0]
  --> max chng: dpmx=   2.5062E-03 dtmpmx=   6.1528E-05

== TH FLOW =====================================================================
 Step    170 Time=  7.90000E+00 Dt=  5.00000E-02 [y] snes_conv_reason:   11
  newton =   1 [     179] linear =   103 [     20626] cuts =  0 [   0]
  --> max chng: dpmx=   2.5078E-03 dtmpmx=   6.1444E-05

== TH FLOW =====================================================================
 Step    171 Time=  7.95000E+00 Dt=  5.00000E-02 [y] snes_conv_reason:   11
  newton =   1 [     180] linear =   106 [     20732] cuts =  0 [   0]
  --> max chng: dpmx=   2.5052E-03 dtmpmx=   6.1358E-05

== TH FLOW =====================================================================
 Step    172 Time=  8.00000E+00 Dt=  5.00000E-02 [y] snes_conv_reason:   11
  newton =   1 [     181] linear =   101 [     20833] cuts =  0 [   0]
  --> max chng: dpmx=   2.4984E-03 dtmpmx=   6.1270E-05

== TH FLOW =====================================================================
 Step    173 Time=  8.05000E+00 Dt=  5.00000E-02 [y] snes_conv_reason:   11
  newton =   1 [     182] linear =    96 [     20929] cuts =  0 [   0]
  --> max chng: dpmx=   2.4889E-03 dtmpmx=   6.1179E-05

== TH FLOW =====================================================================
 Step    174 Time=  8.10000E+00 Dt=  5.00000E-02 [y] snes_conv_reason:   11
  newton =   1 [     183] linear =   107 [     21036] cuts =  0 [   0]
  --> max chng: dpmx=   2.4762E-03 dtmpmx=   6.1088E-05

== TH FLOW =====================================================================
 Step    175 Time=  8.15000E+00 Dt=  5.00000E-02 [y] snes_conv_reason:   11
  newton =   1 [     184] linear =   112 [     21148] cuts =  0 [   0]
  --> max chng: dpmx=   2.4616E-03 dtmpmx=   6.0994E-05

== TH FLOW =====================================================================
 Step    176 Time=  8.20000E+00 Dt=  5.00000E-02 [y] snes_conv_reason:   11
  newton =   1 [     185] linear =   111 [     21259] cuts =  0 [   0]
  --> max chng: dpmx=   2.4447E-03 dtmpmx=   6.0900E-05

== TH FLOW =====================================================================
 Step    177 Time=  8.25000E+00 Dt=  5.00000E-02 [y] snes_conv_reason:   11
  newton =   1 [     186] linear =   112 [     21371] cuts =  0 [   0]
  --> max chng: dpmx=   2.4254E-03 dtmpmx=   6.0803E-05

== TH FLOW =====================================================================
 Step    178 Time=  8.30000E+00 Dt=  5.00000E-02 [y] snes_conv_reason:   11
  newton =   1 [     187] linear =   105 [     21476] cuts =  0 [   0]
  --> max chng: dpmx=   2.4045E-03 dtmpmx=   6.0706E-05

== TH FLOW =====================================================================
 Step    179 Time=  8.35000E+00 Dt=  5.00000E-02 [y] snes_conv_reason:   11
  newton =   1 [     188] linear =   103 [     21579] cuts =  0 [   0]
  --> max chng: dpmx=   2.3817E-03 dtmpmx=   6.0607E-05

== TH FLOW =====================================================================
 Step    180 Time=  8.40000E+00 Dt=  5.00000E-02 [y] snes_conv_reason:   11
  newton =   1 [     189] linear =   102 [     21681] cuts =  0 [   0]
  --> max chng: dpmx=   2.3569E-03 dtmpmx=   6.0506E-05

== TH FLOW =====================================================================
 Step    181 Time=  8.45000E+00 Dt=  5.00000E-02 [y] snes_conv_reason:   11
  newton =   1 [     190] linear =    98 [     21779] cuts =  0 [   0]
  --> max chng: dpmx=   2.3307E-03 dtmpmx=   6.0405E-05

== TH FLOW =====================================================================
 Step    182 Time=  8.50000E+00 Dt=  5.00000E-02 [y] snes_conv_reason:   11
  newton =   1 [     191] linear =   110 [     21889] cuts =  0 [   0]
  --> max chng: dpmx=   2.3027E-03 dtmpmx=   6.0303E-05

== TH FLOW =====================================================================
 Step    183 Time=  8.55000E+00 Dt=  5.00000E-02 [y] snes_conv_reason:   11
  newton =   1 [     192] linear =   109 [     21998] cuts =  0 [   0]
  --> max chng: dpmx=   2.2733E-03 dtmpmx=   6.0200E-05

== TH FLOW =====================================================================
 Step    184 Time=  8.60000E+00 Dt=  5.00000E-02 [y] snes_conv_reason:   11
  newton =   1 [     193] linear =   108 [     22106] cuts =  0 [   0]
  --> max chng: dpmx=   2.2421E-03 dtmpmx=   6.0095E-05

== TH FLOW =====================================================================
 Step    185 Time=  8.65000E+00 Dt=  5.00000E-02 [y] snes_conv_reason:   11
  newton =   1 [     194] linear =   108 [     22214] cuts =  0 [   0]
  --> max chng: dpmx=   2.2094E-03 dtmpmx=   5.9990E-05

== TH FLOW =====================================================================
 Step    186 Time=  8.70000E+00 Dt=  5.00000E-02 [y] snes_conv_reason:   11
  newton =   1 [     195] linear =   105 [     22319] cuts =  0 [   0]
  --> max chng: dpmx=   2.1754E-03 dtmpmx=   5.9884E-05

== TH FLOW =====================================================================
 Step    187 Time=  8.75000E+00 Dt=  5.00000E-02 [y] snes_conv_reason:   11
  newton =   1 [     196] linear =    92 [     22411] cuts =  0 [   0]
  --> max chng: dpmx=   2.1397E-03 dtmpmx=   5.9778E-05

== TH FLOW =====================================================================
 Step    188 Time=  8.80000E+00 Dt=  5.00000E-02 [y] snes_conv_reason:   11
  newton =   1 [     197] linear =   112 [     22523] cuts =  0 [   0]
  --> max chng: dpmx=   2.1031E-03 dtmpmx=   5.9670E-05

== TH FLOW =====================================================================
 Step    189 Time=  8.85000E+00 Dt=  5.00000E-02 [y] snes_conv_reason:   11
  newton =   1 [     198] linear =   109 [     22632] cuts =  0 [   0]
  --> max chng: dpmx=   2.0648E-03 dtmpmx=   5.9563E-05

== TH FLOW =====================================================================
 Step    190 Time=  8.90000E+00 Dt=  5.00000E-02 [y] snes_conv_reason:   11
  newton =   1 [     199] linear =   107 [     22739] cuts =  0 [   0]
  --> max chng: dpmx=   2.0252E-03 dtmpmx=   5.9454E-05

== TH FLOW =====================================================================
 Step    191 Time=  8.95000E+00 Dt=  5.00000E-02 [y] snes_conv_reason:   11
  newton =   1 [     200] linear =   102 [     22841] cuts =  0 [   0]
  --> max chng: dpmx=   1.9842E-03 dtmpmx=   5.9345E-05

== TH FLOW =====================================================================
 Step    192 Time=  9.00000E+00 Dt=  5.00000E-02 [y] snes_conv_reason:   11
  newton =   1 [     201] linear =   100 [     22941] cuts =  0 [   0]
  --> max chng: dpmx=   1.9425E-03 dtmpmx=   5.9235E-05

== TH FLOW =====================================================================
 Step    193 Time=  9.05000E+00 Dt=  5.00000E-02 [y] snes_conv_reason:   11
  newton =   1 [     202] linear =   107 [     23048] cuts =  0 [   0]
  --> max chng: dpmx=   1.8990E-03 dtmpmx=   5.9126E-05

== TH FLOW =====================================================================
 Step    194 Time=  9.10000E+00 Dt=  5.00000E-02 [y] snes_conv_reason:   11
  newton =   1 [     203] linear =    92 [     23140] cuts =  0 [   0]
  --> max chng: dpmx=   1.8548E-03 dtmpmx=   5.9014E-05

== TH FLOW =====================================================================
 Step    195 Time=  9.15000E+00 Dt=  5.00000E-02 [y] snes_conv_reason:   11
  newton =   1 [     204] linear =   108 [     23248] cuts =  0 [   0]
  --> max chng: dpmx=   1.8092E-03 dtmpmx=   5.8901E-05

== TH FLOW =====================================================================
 Step    196 Time=  9.20000E+00 Dt=  5.00000E-02 [y] snes_conv_reason:   11
  newton =   1 [     205] linear =   103 [     23351] cuts =  0 [   0]
  --> max chng: dpmx=   1.7630E-03 dtmpmx=   5.8766E-05

== TH FLOW =====================================================================
 Step    197 Time=  9.25000E+00 Dt=  5.00000E-02 [y] snes_conv_reason:   11
  newton =   1 [     206] linear =   104 [     23455] cuts =  0 [   0]
  --> max chng: dpmx=   1.7162E-03 dtmpmx=   5.8578E-05

== TH FLOW =====================================================================
 Step    198 Time=  9.30000E+00 Dt=  5.00000E-02 [y] snes_conv_reason:   11
  newton =   1 [     207] linear =   112 [     23567] cuts =  0 [   0]
  --> max chng: dpmx=   1.6677E-03 dtmpmx=   5.8333E-05

== TH FLOW =====================================================================
 Step    199 Time=  9.35000E+00 Dt=  5.00000E-02 [y] snes_conv_reason:   11
  newton =   1 [     208] linear =   101 [     23668] cuts =  0 [   0]
  --> max chng: dpmx=   1.6189E-03 dtmpmx=   5.8029E-05

== TH FLOW =====================================================================
 Step    200 Time=  9.40000E+00 Dt=  5.00000E-02 [y] snes_conv_reason:   11
  newton =   1 [     209] linear =   100 [     23768] cuts =  0 [   0]
  --> max chng: dpmx=   1.5696E-03 dtmpmx=   5.7664E-05

== TH FLOW =====================================================================
 Step    201 Time=  9.45000E+00 Dt=  5.00000E-02 [y] snes_conv_reason:   11
  newton =   1 [     210] linear =   105 [     23873] cuts =  0 [   0]
  --> max chng: dpmx=   1.5196E-03 dtmpmx=   5.7234E-05

== TH FLOW =====================================================================
 Step    202 Time=  9.50000E+00 Dt=  5.00000E-02 [y] snes_conv_reason:   11
  newton =   1 [     211] linear =   104 [     23977] cuts =  0 [   0]
  --> max chng: dpmx=   1.4692E-03 dtmpmx=   5.6737E-05

== TH FLOW =====================================================================
 Step    203 Time=  9.55000E+00 Dt=  5.00000E-02 [y] snes_conv_reason:   11
  newton =   1 [     212] linear =   106 [     24083] cuts =  0 [   0]
  --> max chng: dpmx=   1.4186E-03 dtmpmx=   5.6172E-05

== TH FLOW =====================================================================
 Step    204 Time=  9.60000E+00 Dt=  5.00000E-02 [y] snes_conv_reason:   11
  newton =   1 [     213] linear =   104 [     24187] cuts =  0 [   0]
  --> max chng: dpmx=   1.3677E-03 dtmpmx=   5.5537E-05

== TH FLOW =====================================================================
 Step    205 Time=  9.65000E+00 Dt=  5.00000E-02 [y] snes_conv_reason:   11
  newton =   1 [     214] linear =   109 [     24296] cuts =  0 [   0]
  --> max chng: dpmx=   1.3161E-03 dtmpmx=   5.4832E-05

== TH FLOW =====================================================================
 Step    206 Time=  9.70000E+00 Dt=  5.00000E-02 [y] snes_conv_reason:   11
  newton =   1 [     215] linear =   113 [     24409] cuts =  0 [   0]
  --> max chng: dpmx=   1.2652E-03 dtmpmx=   5.4055E-05

== TH FLOW =====================================================================
 Step    207 Time=  9.75000E+00 Dt=  5.00000E-02 [y] snes_conv_reason:   11
  newton =   1 [     216] linear =   113 [     24522] cuts =  0 [   0]
  --> max chng: dpmx=   1.2140E-03 dtmpmx=   5.3207E-05

== TH FLOW =====================================================================
 Step    208 Time=  9.80000E+00 Dt=  5.00000E-02 [y] snes_conv_reason:   11
  newton =   1 [     217] linear =   115 [     24637] cuts =  0 [   0]
  --> max chng: dpmx=   1.1630E-03 dtmpmx=   5.2288E-05

== TH FLOW =====================================================================
 Step    209 Time=  9.85000E+00 Dt=  5.00000E-02 [y] snes_conv_reason:   11
  newton =   1 [     218] linear =   112 [     24749] cuts =  0 [   0]
  --> max chng: dpmx=   1.1124E-03 dtmpmx=   5.1300E-05

== TH FLOW =====================================================================
 Step    210 Time=  9.90000E+00 Dt=  5.00000E-02 [y] snes_conv_reason:   11
  newton =   1 [     219] linear =   112 [     24861] cuts =  0 [   0]
  --> max chng: dpmx=   1.0621E-03 dtmpmx=   5.0243E-05

== TH FLOW =====================================================================
 Step    211 Time=  9.95000E+00 Dt=  5.00000E-02 [y] snes_conv_reason:   11
  newton =   1 [     220] linear =   113 [     24974] cuts =  0 [   0]
  --> max chng: dpmx=   1.0125E-03 dtmpmx=   4.9120E-05

== TH FLOW =====================================================================
 Step    212 Time=  1.00000E+01 Dt=  5.00000E-02 [y] snes_conv_reason:   11
  newton =   1 [     221] linear =   109 [     25083] cuts =  0 [   0]
  --> max chng: dpmx=   9.6346E-04 dtmpmx=   4.7934E-05

== TH FLOW =====================================================================
 Step    213 Time=  1.00500E+01 Dt=  5.00000E-02 [y] snes_conv_reason:   11
  newton =   1 [     222] linear =   114 [     25197] cuts =  0 [   0]
  --> max chng: dpmx=   9.1501E-04 dtmpmx=   4.6696E-05

== TH FLOW =====================================================================
 Step    214 Time=  1.01000E+01 Dt=  5.00000E-02 [y] snes_conv_reason:   11
  newton =   1 [     223] linear =   116 [     25313] cuts =  0 [   0]
  --> max chng: dpmx=   8.6762E-04 dtmpmx=   4.5434E-05

== TH FLOW =====================================================================
 Step    215 Time=  1.01500E+01 Dt=  5.00000E-02 [y] snes_conv_reason:   11
  newton =   1 [     224] linear =   112 [     25425] cuts =  0 [   0]
  --> max chng: dpmx=   8.2093E-04 dtmpmx=   4.4118E-05

== TH FLOW =====================================================================
 Step    216 Time=  1.02000E+01 Dt=  5.00000E-02 [y] snes_conv_reason:   11
  newton =   1 [     225] linear =   106 [     25531] cuts =  0 [   0]
  --> max chng: dpmx=   7.7545E-04 dtmpmx=   4.2754E-05

== TH FLOW =====================================================================
 Step    217 Time=  1.02500E+01 Dt=  5.00000E-02 [y] snes_conv_reason:   11
  newton =   1 [     226] linear =   115 [     25646] cuts =  0 [   0]
  --> max chng: dpmx=   7.3107E-04 dtmpmx=   4.1347E-05

== TH FLOW =====================================================================
 Step    218 Time=  1.03000E+01 Dt=  5.00000E-02 [y] snes_conv_reason:   11
  newton =   1 [     227] linear =   114 [     25760] cuts =  0 [   0]
  --> max chng: dpmx=   6.8769E-04 dtmpmx=   3.9902E-05

== TH FLOW =====================================================================
 Step    219 Time=  1.03500E+01 Dt=  5.00000E-02 [y] snes_conv_reason:   11
  newton =   1 [     228] linear =   120 [     25880] cuts =  0 [   0]
  --> max chng: dpmx=   6.4587E-04 dtmpmx=   3.8424E-05

== TH FLOW =====================================================================
 Step    220 Time=  1.04000E+01 Dt=  5.00000E-02 [y] snes_conv_reason:   11
  newton =   1 [     229] linear =   116 [     25996] cuts =  0 [   0]
  --> max chng: dpmx=   6.0504E-04 dtmpmx=   3.6920E-05

== TH FLOW =====================================================================
 Step    221 Time=  1.04500E+01 Dt=  5.00000E-02 [y] snes_conv_reason:   11
  newton =   1 [     230] linear =   113 [     26109] cuts =  0 [   0]
  --> max chng: dpmx=   5.6599E-04 dtmpmx=   3.5396E-05

== TH FLOW =====================================================================
 Step    222 Time=  1.05000E+01 Dt=  5.00000E-02 [y] snes_conv_reason:   11
  newton =   1 [     231] linear =   118 [     26227] cuts =  0 [   0]
  --> max chng: dpmx=   5.2807E-04 dtmpmx=   3.3858E-05

== TH FLOW =====================================================================
 Step    223 Time=  1.05500E+01 Dt=  5.00000E-02 [y] snes_conv_reason:   11
  newton =   1 [     232] linear =   116 [     26343] cuts =  0 [   0]
  --> max chng: dpmx=   4.9180E-04 dtmpmx=   3.2312E-05

== TH FLOW =====================================================================
 Step    224 Time=  1.06000E+01 Dt=  5.00000E-02 [y] snes_conv_reason:   11
  newton =   1 [     233] linear =   118 [     26461] cuts =  0 [   0]
  --> max chng: dpmx=   4.5683E-04 dtmpmx=   3.0764E-05

== TH FLOW =====================================================================
 Step    225 Time=  1.06500E+01 Dt=  5.00000E-02 [y] snes_conv_reason:   11
  newton =   1 [     234] linear =   118 [     26579] cuts =  0 [   0]
  --> max chng: dpmx=   4.2360E-04 dtmpmx=   2.9221E-05

== TH FLOW =====================================================================
 Step    226 Time=  1.07000E+01 Dt=  5.00000E-02 [y] snes_conv_reason:   11
  newton =   1 [     235] linear =   118 [     26697] cuts =  0 [   0]
  --> max chng: dpmx=   3.9188E-04 dtmpmx=   2.7689E-05

== TH FLOW =====================================================================
 Step    227 Time=  1.07500E+01 Dt=  5.00000E-02 [y] snes_conv_reason:   11
  newton =   1 [     236] linear =   118 [     26815] cuts =  0 [   0]
  --> max chng: dpmx=   3.6175E-04 dtmpmx=   2.6173E-05

== TH FLOW =====================================================================
 Step    228 Time=  1.08000E+01 Dt=  5.00000E-02 [y] snes_conv_reason:   11
  newton =   1 [     237] linear =   117 [     26932] cuts =  0 [   0]
  --> max chng: dpmx=   3.3306E-04 dtmpmx=   2.4679E-05

== TH FLOW =====================================================================
 Step    229 Time=  1.08500E+01 Dt=  5.00000E-02 [y] snes_conv_reason:   11
  newton =   1 [     238] linear =   120 [     27052] cuts =  0 [   0]
  --> max chng: dpmx=   3.0609E-04 dtmpmx=   2.3213E-05

== TH FLOW =====================================================================
 Step    230 Time=  1.09000E+01 Dt=  5.00000E-02 [y] snes_conv_reason:   11
  newton =   1 [     239] linear =   118 [     27170] cuts =  0 [   0]
  --> max chng: dpmx=   2.8049E-04 dtmpmx=   2.1778E-05

== TH FLOW =====================================================================
 Step    231 Time=  1.09500E+01 Dt=  5.00000E-02 [y] snes_conv_reason:   11
  newton =   1 [     240] linear =   118 [     27288] cuts =  0 [   0]
  --> max chng: dpmx=   2.5649E-04 dtmpmx=   2.0381E-05

== TH FLOW =====================================================================
 Step    232 Time=  1.10000E+01 Dt=  5.00000E-02 [y] snes_conv_reason:   11
  newton =   1 [     241] linear =   118 [     27406] cuts =  0 [   0]
  --> max chng: dpmx=   2.3398E-04 dtmpmx=   1.9024E-05

== TH FLOW =====================================================================
 Step    233 Time=  1.10500E+01 Dt=  5.00000E-02 [y] snes_conv_reason:   11
  newton =   1 [     242] linear =   120 [     27526] cuts =  0 [   0]
  --> max chng: dpmx=   2.1295E-04 dtmpmx=   1.7711E-05

== TH FLOW =====================================================================
 Step    234 Time=  1.11000E+01 Dt=  5.00000E-02 [y] snes_conv_reason:   11
  newton =   1 [     243] linear =   118 [     27644] cuts =  0 [   0]
  --> max chng: dpmx=   1.9324E-04 dtmpmx=   1.6446E-05

== TH FLOW =====================================================================
 Step    235 Time=  1.11500E+01 Dt=  5.00000E-02 [y] snes_conv_reason:   11
  newton =   1 [     244] linear =   121 [     27765] cuts =  0 [   0]
  --> max chng: dpmx=   1.7500E-04 dtmpmx=   1.5230E-05

== TH FLOW =====================================================================
 Step    236 Time=  1.12000E+01 Dt=  5.00000E-02 [y] snes_conv_reason:   11
  newton =   1 [     245] linear =   119 [     27884] cuts =  0 [   0]
  --> max chng: dpmx=   1.5803E-04 dtmpmx=   1.4067E-05

== TH FLOW =====================================================================
 Step    237 Time=  1.12500E+01 Dt=  5.00000E-02 [y] snes_conv_reason:   11
  newton =   1 [     246] linear =   120 [     28004] cuts =  0 [   0]
  --> max chng: dpmx=   1.4230E-04 dtmpmx=   1.2958E-05

== TH FLOW =====================================================================
 Step    238 Time=  1.13000E+01 Dt=  5.00000E-02 [y] snes_conv_reason:   11
  newton =   1 [     247] linear =   120 [     28124] cuts =  0 [   0]
  --> max chng: dpmx=   1.2779E-04 dtmpmx=   1.1903E-05

== TH FLOW =====================================================================
 Step    239 Time=  1.13500E+01 Dt=  5.00000E-02 [y] snes_conv_reason:   11
  newton =   1 [     248] linear =   120 [     28244] cuts =  0 [   0]
  --> max chng: dpmx=   1.1448E-04 dtmpmx=   1.0904E-05

== TH FLOW =====================================================================
 Step    240 Time=  1.14000E+01 Dt=  5.00000E-02 [y] snes_conv_reason:   11
  newton =   1 [     249] linear =   117 [     28361] cuts =  0 [   0]
  --> max chng: dpmx=   1.0224E-04 dtmpmx=   9.9606E-06

== TH FLOW =====================================================================
 Step    241 Time=  1.14500E+01 Dt=  5.00000E-02 [y] snes_conv_reason:   11
  newton =   1 [     250] linear =   120 [     28481] cuts =  0 [   0]
  --> max chng: dpmx=   9.1064E-05 dtmpmx=   9.0731E-06

== TH FLOW =====================================================================
 Step    242 Time=  1.15000E+01 Dt=  5.00000E-02 [y] snes_conv_reason:   11
  newton =   1 [     251] linear =   120 [     28601] cuts =  0 [   0]
  --> max chng: dpmx=   8.0848E-05 dtmpmx=   8.2410E-06

== TH FLOW =====================================================================
 Step    243 Time=  1.15500E+01 Dt=  5.00000E-02 [y] snes_conv_reason:   11
  newton =   1 [     252] linear =   119 [     28720] cuts =  0 [   0]
  --> max chng: dpmx=   7.1572E-05 dtmpmx=   7.4632E-06

== TH FLOW =====================================================================
 Step    244 Time=  1.16000E+01 Dt=  5.00000E-02 [y] snes_conv_reason:   11
  newton =   1 [     253] linear =   121 [     28841] cuts =  0 [   0]
  --> max chng: dpmx=   6.3123E-05 dtmpmx=   6.7386E-06

== TH FLOW =====================================================================
 Step    245 Time=  1.16500E+01 Dt=  5.00000E-02 [y] snes_conv_reason:   11
  newton =   1 [     254] linear =   121 [     28962] cuts =  0 [   0]
  --> max chng: dpmx=   5.5518E-05 dtmpmx=   6.0659E-06

== TH FLOW =====================================================================
 Step    246 Time=  1.17000E+01 Dt=  5.00000E-02 [y] snes_conv_reason:   11
  newton =   1 [     255] linear =   121 [     29083] cuts =  0 [   0]
  --> max chng: dpmx=   4.8633E-05 dtmpmx=   5.4433E-06

== TH FLOW =====================================================================
 Step    247 Time=  1.17500E+01 Dt=  5.00000E-02 [y] snes_conv_reason:   11
  newton =   1 [     256] linear =   123 [     29206] cuts =  0 [   0]
  --> max chng: dpmx=   4.2465E-05 dtmpmx=   4.8690E-06

== TH FLOW =====================================================================
 Step    248 Time=  1.18000E+01 Dt=  5.00000E-02 [y] snes_conv_reason:   11
  newton =   1 [     257] linear =   124 [     29330] cuts =  0 [   0]
  --> max chng: dpmx=   3.6919E-05 dtmpmx=   4.3410E-06

== TH FLOW =====================================================================
 Step    249 Time=  1.18500E+01 Dt=  5.00000E-02 [y] snes_conv_reason:   11
  newton =   1 [     258] linear =   125 [     29455] cuts =  0 [   0]
  --> max chng: dpmx=   3.1972E-05 dtmpmx=   3.8569E-06

== TH FLOW =====================================================================
 Step    250 Time=  1.19000E+01 Dt=  5.00000E-02 [y] snes_conv_reason:   11
  newton =   1 [     259] linear =   123 [     29578] cuts =  0 [   0]
  --> max chng: dpmx=   2.7575E-05 dtmpmx=   3.4147E-06

== TH FLOW =====================================================================
 Step    251 Time=  1.19500E+01 Dt=  5.00000E-02 [y] snes_conv_reason:   11
  newton =   1 [     260] linear =   123 [     29701] cuts =  0 [   0]
  --> max chng: dpmx=   2.3658E-05 dtmpmx=   3.0120E-06

== TH FLOW =====================================================================
 Step    252 Time=  1.20000E+01 Dt=  5.00000E-02 [y] snes_conv_reason:   11
  newton =   1 [     261] linear =   123 [     29824] cuts =  0 [   0]
  --> max chng: dpmx=   2.0202E-05 dtmpmx=   2.6464E-06

== TH FLOW =====================================================================
 Step    253 Time=  1.20500E+01 Dt=  5.00000E-02 [y] snes_conv_reason:   11
  newton =   1 [     262] linear =   121 [     29945] cuts =  0 [   0]
  --> max chng: dpmx=   1.7151E-05 dtmpmx=   2.3154E-06

== TH FLOW =====================================================================
 Step    254 Time=  1.21000E+01 Dt=  5.00000E-02 [y] snes_conv_reason:   11
  newton =   1 [     263] linear =   124 [     30069] cuts =  0 [   0]
  --> max chng: dpmx=   1.4476E-05 dtmpmx=   2.0169E-06

== TH FLOW =====================================================================
 Step    255 Time=  1.21500E+01 Dt=  5.00000E-02 [y] snes_conv_reason:   11
  newton =   1 [     264] linear =   124 [     30193] cuts =  0 [   0]
  --> max chng: dpmx=   1.2137E-05 dtmpmx=   1.7486E-06

== TH FLOW =====================================================================
 Step    256 Time=  1.22000E+01 Dt=  5.00000E-02 [y] snes_conv_reason:   11
  newton =   1 [     265] linear =   123 [     30316] cuts =  0 [   0]
  --> max chng: dpmx=   1.0103E-05 dtmpmx=   1.5079E-06

== TH FLOW =====================================================================
 Step    257 Time=  1.22500E+01 Dt=  5.00000E-02 [y] snes_conv_reason:   11
  newton =   1 [     266] linear =   122 [     30438] cuts =  0 [   0]
  --> max chng: dpmx=   8.3405E-06 dtmpmx=   1.2929E-06

[...]
 Step    493 Time=  2.40500E+01 Dt=  5.00000E-02 [y] snes_conv_reason:   11
  newton =   1 [     502] linear =    98 [     56653] cuts =  0 [   0]
  --> max chng: dpmx=   1.1642E-10 dtmpmx=   8.0853E-11

== TH FLOW =====================================================================
 Step    494 Time=  2.41000E+01 Dt=  5.00000E-02 [y] snes_conv_reason:   11
  newton =   1 [     503] linear =    57 [     56710] cuts =  0 [   0]
  --> max chng: dpmx=   1.1642E-10 dtmpmx=   8.4803E-11

== TH FLOW =====================================================================
 Step    495 Time=  2.41500E+01 Dt=  5.00000E-02 [y] snes_conv_reason:   11
  newton =   1 [     504] linear =    70 [     56780] cuts =  0 [   0]
  --> max chng: dpmx=   1.1642E-10 dtmpmx=   7.3685E-11

== TH FLOW =====================================================================
 Step    496 Time=  2.42000E+01 Dt=  5.00000E-02 [y] snes_conv_reason:   11
  newton =   1 [     505] linear =    57 [     56837] cuts =  0 [   0]
  --> max chng: dpmx=   1.1642E-10 dtmpmx=   7.4122E-11

== TH FLOW =====================================================================
 Step    497 Time=  2.42500E+01 Dt=  5.00000E-02 [y] snes_conv_reason:   11
  newton =   1 [     506] linear =    39 [     56876] cuts =  0 [   0]
  --> max chng: dpmx=   1.1642E-10 dtmpmx=   7.8803E-11

== TH FLOW =====================================================================
 Step    498 Time=  2.43000E+01 Dt=  5.00000E-02 [y] snes_conv_reason:   11
  newton =   1 [     507] linear =   123 [     56999] cuts =  0 [   0]
  --> max chng: dpmx=   2.3283E-10 dtmpmx=   7.7868E-11

== TH FLOW =====================================================================
 Step    499 Time=  2.43500E+01 Dt=  5.00000E-02 [y] snes_conv_reason:   11
  newton =   1 [     508] linear =    93 [     57092] cuts =  0 [   0]
  --> max chng: dpmx=   1.1642E-10 dtmpmx=   7.1413E-11

== TH FLOW =====================================================================
 Step    500 Time=  2.44000E+01 Dt=  5.00000E-02 [y] snes_conv_reason:   11
  newton =   1 [     509] linear =    90 [     57182] cuts =  0 [   0]
  --> max chng: dpmx=   1.1642E-10 dtmpmx=   7.1267E-11

== TH FLOW =====================================================================
 Step    501 Time=  2.44500E+01 Dt=  5.00000E-02 [y] snes_conv_reason:   11
  newton =   1 [     510] linear =   119 [     57301] cuts =  0 [   0]
  --> max chng: dpmx=   1.1642E-10 dtmpmx=   8.4331E-11

== TH FLOW =====================================================================
 Step    502 Time=  2.45000E+01 Dt=  5.00000E-02 [y] snes_conv_reason:   11
  newton =   1 [     511] linear =   111 [     57412] cuts =  0 [   0]
  --> max chng: dpmx=   1.1642E-10 dtmpmx=   7.4097E-11

== TH FLOW =====================================================================
 Step    503 Time=  2.45500E+01 Dt=  5.00000E-02 [y] snes_conv_reason:   11
  newton =   1 [     512] linear =   113 [     57525] cuts =  0 [   0]
  --> max chng: dpmx=   1.1642E-10 dtmpmx=   6.9672E-11

== TH FLOW =====================================================================
 Step    504 Time=  2.46000E+01 Dt=  5.00000E-02 [y] snes_conv_reason:   11
  newton =   1 [     513] linear =   107 [     57632] cuts =  0 [   0]
  --> max chng: dpmx=   1.1642E-10 dtmpmx=   7.1479E-11

== TH FLOW =====================================================================
 Step    505 Time=  2.46500E+01 Dt=  5.00000E-02 [y] snes_conv_reason:   11
  newton =   1 [     514] linear =   106 [     57738] cuts =  0 [   0]
  --> max chng: dpmx=   1.1642E-10 dtmpmx=   7.7753E-11

== TH FLOW =====================================================================
 Step    506 Time=  2.47000E+01 Dt=  5.00000E-02 [y] snes_conv_reason:   11
  newton =   1 [     515] linear =    76 [     57814] cuts =  0 [   0]
  --> max chng: dpmx=   1.1642E-10 dtmpmx=   7.5246E-11

== TH FLOW =====================================================================
 Step    507 Time=  2.47500E+01 Dt=  5.00000E-02 [y] snes_conv_reason:   11
  newton =   1 [     516] linear =   104 [     57918] cuts =  0 [   0]
  --> max chng: dpmx=   1.1642E-10 dtmpmx=   7.8124E-11

== TH FLOW =====================================================================
 Step    508 Time=  2.48000E+01 Dt=  5.00000E-02 [y] snes_conv_reason:   11
  newton =   1 [     517] linear =    93 [     58011] cuts =  0 [   0]
  --> max chng: dpmx=   1.1642E-10 dtmpmx=   7.3301E-11

== TH FLOW =====================================================================
 Step    509 Time=  2.48500E+01 Dt=  5.00000E-02 [y] snes_conv_reason:   11
  newton =   1 [     518] linear =    54 [     58065] cuts =  0 [   0]
  --> max chng: dpmx=   1.1642E-10 dtmpmx=   8.8370E-11

== TH FLOW =====================================================================
 Step    510 Time=  2.49000E+01 Dt=  5.00000E-02 [y] snes_conv_reason:   11
  newton =   1 [     519] linear =   109 [     58174] cuts =  0 [   0]
  --> max chng: dpmx=   1.1642E-10 dtmpmx=   6.8068E-11

== TH FLOW =====================================================================
 Step    511 Time=  2.49500E+01 Dt=  5.00000E-02 [y] snes_conv_reason:   11
  newton =   1 [     520] linear =    90 [     58264] cuts =  0 [   0]
  --> max chng: dpmx=   1.1642E-10 dtmpmx=   7.8929E-11

== TH FLOW =====================================================================
 Step    512 Time=  2.50000E+01 Dt=  5.00000E-02 [y] snes_conv_reason:   11
  newton =   1 [     521] linear =    71 [     58335] cuts =  0 [   0]
  --> max chng: dpmx=   2.3283E-10 dtmpmx=   7.7780E-11

== TH FLOW =====================================================================
 Step    513 Time=  2.50500E+01 Dt=  5.00000E-02 [y] snes_conv_reason:   11
  newton =   1 [     522] linear =   110 [     58445] cuts =  0 [   0]
  --> max chng: dpmx=   1.1642E-10 dtmpmx=   6.9031E-11

== TH FLOW =====================================================================
 Step    514 Time=  2.51000E+01 Dt=  5.00000E-02 [y] snes_conv_reason:   11
  newton =   1 [     523] linear =   105 [     58550] cuts =  0 [   0]
  --> max chng: dpmx=   2.3283E-10 dtmpmx=   8.2830E-11

== TH FLOW =====================================================================
 Step    515 Time=  2.51500E+01 Dt=  5.00000E-02 [y] snes_conv_reason:   11
  newton =   1 [     524] linear =   112 [     58662] cuts =  0 [   0]
  --> max chng: dpmx=   1.1642E-10 dtmpmx=   7.6072E-11

== TH FLOW =====================================================================
 Step    516 Time=  2.52000E+01 Dt=  5.00000E-02 [y] snes_conv_reason:   11
  newton =   1 [     525] linear =    70 [     58732] cuts =  0 [   0]
  --> max chng: dpmx=   1.1642E-10 dtmpmx=   7.1578E-11

== TH FLOW =====================================================================
 Step    517 Time=  2.52500E+01 Dt=  5.00000E-02 [y] snes_conv_reason:   11
  newton =   1 [     526] linear =    96 [     58828] cuts =  0 [   0]
  --> max chng: dpmx=   1.1642E-10 dtmpmx=   7.8098E-11

== TH FLOW =====================================================================
 Step    518 Time=  2.53000E+01 Dt=  5.00000E-02 [y] snes_conv_reason:   11
  newton =   1 [     527] linear =    68 [     58896] cuts =  0 [   0]
  --> max chng: dpmx=   1.1642E-10 dtmpmx=   7.4200E-11

== TH FLOW =====================================================================
 Step    519 Time=  2.53500E+01 Dt=  5.00000E-02 [y] snes_conv_reason:   11
  newton =   1 [     528] linear =   110 [     59006] cuts =  0 [   0]
  --> max chng: dpmx=   1.1642E-10 dtmpmx=   7.5310E-11

== TH FLOW =====================================================================
 Step    520 Time=  2.54000E+01 Dt=  5.00000E-02 [y] snes_conv_reason:   11
  newton =   1 [     529] linear =    95 [     59101] cuts =  0 [   0]
  --> max chng: dpmx=   1.1642E-10 dtmpmx=   8.5363E-11

== TH FLOW =====================================================================
 Step    521 Time=  2.54500E+01 Dt=  5.00000E-02 [y] snes_conv_reason:   11
  newton =   1 [     530] linear =    76 [     59177] cuts =  0 [   0]
  --> max chng: dpmx=   1.1642E-10 dtmpmx=   7.4435E-11

== TH FLOW =====================================================================
 Step    522 Time=  2.55000E+01 Dt=  5.00000E-02 [y] snes_conv_reason:   11
  newton =   1 [     531] linear =   111 [     59288] cuts =  0 [   0]
  --> max chng: dpmx=   1.1642E-10 dtmpmx=   7.0102E-11

== TH FLOW =====================================================================
 Step    523 Time=  2.55500E+01 Dt=  5.00000E-02 [y] snes_conv_reason:   11
  newton =   1 [     532] linear =    66 [     59354] cuts =  0 [   0]
  --> max chng: dpmx=   1.1642E-10 dtmpmx=   7.2559E-11

== TH FLOW =====================================================================
 Step    524 Time=  2.56000E+01 Dt=  5.00000E-02 [y] snes_conv_reason:   11
  newton =   1 [     533] linear =    92 [     59446] cuts =  0 [   0]
  --> max chng: dpmx=   1.1642E-10 dtmpmx=   7.7403E-11

== TH FLOW =====================================================================
 Step    525 Time=  2.56500E+01 Dt=  5.00000E-02 [y] snes_conv_reason:   11
  newton =   1 [     534] linear =   102 [     59548] cuts =  0 [   0]
  --> max chng: dpmx=   2.3283E-10 dtmpmx=   8.4535E-11

== TH FLOW =====================================================================
 Step    526 Time=  2.57000E+01 Dt=  5.00000E-02 [y] snes_conv_reason:   11
  newton =   1 [     535] linear =   107 [     59655] cuts =  0 [   0]
  --> max chng: dpmx=   1.1642E-10 dtmpmx=   7.5197E-11

== TH FLOW =====================================================================
 Step    527 Time=  2.57500E+01 Dt=  5.00000E-02 [y] snes_conv_reason:   11
  newton =   1 [     536] linear =   105 [     59760] cuts =  0 [   0]
  --> max chng: dpmx=   2.3283E-10 dtmpmx=   7.2060E-11

== TH FLOW =====================================================================
 Step    528 Time=  2.58000E+01 Dt=  5.00000E-02 [y] snes_conv_reason:   11
  newton =   1 [     537] linear =    54 [     59814] cuts =  0 [   0]
  --> max chng: dpmx=   1.1642E-10 dtmpmx=   7.3648E-11

== TH FLOW =====================================================================
 Step    529 Time=  2.58500E+01 Dt=  5.00000E-02 [y] snes_conv_reason:   11
  newton =   1 [     538] linear =    84 [     59898] cuts =  0 [   0]
  --> max chng: dpmx=   1.1642E-10 dtmpmx=   7.8284E-11

== TH FLOW =====================================================================
 Step    530 Time=  2.59000E+01 Dt=  5.00000E-02 [y] snes_conv_reason:   11
  newton =   1 [     539] linear =    81 [     59979] cuts =  0 [   0]
  --> max chng: dpmx=   1.1642E-10 dtmpmx=   8.1704E-11

== TH FLOW =====================================================================
 Step    531 Time=  2.59500E+01 Dt=  5.00000E-02 [y] snes_conv_reason:   11
  newton =   1 [     540] linear =   125 [     60104] cuts =  0 [   0]
  --> max chng: dpmx=   1.1642E-10 dtmpmx=   7.9767E-11

== TH FLOW =====================================================================
 Step    532 Time=  2.60000E+01 Dt=  5.00000E-02 [y] snes_conv_reason:   11
  newton =   1 [     541] linear =    59 [     60163] cuts =  0 [   0]
  --> max chng: dpmx=   1.1642E-10 dtmpmx=   8.4286E-11

== TH FLOW =====================================================================
 Step    533 Time=  2.60500E+01 Dt=  5.00000E-02 [y] snes_conv_reason:   11
  newton =   1 [     542] linear =    95 [     60258] cuts =  0 [   0]
  --> max chng: dpmx=   1.1642E-10 dtmpmx=   7.8941E-11

== TH FLOW =====================================================================
 Step    534 Time=  2.61000E+01 Dt=  5.00000E-02 [y] snes_conv_reason:   11
  newton =   1 [     543] linear =   120 [     60378] cuts =  0 [   0]
  --> max chng: dpmx=   2.3283E-10 dtmpmx=   8.2249E-11

== TH FLOW =====================================================================
 Step    535 Time=  2.61500E+01 Dt=  5.00000E-02 [y] snes_conv_reason:   11
  newton =   1 [     544] linear =    53 [     60431] cuts =  0 [   0]
  --> max chng: dpmx=   1.1642E-10 dtmpmx=   8.1576E-11

== TH FLOW =====================================================================
 Step    536 Time=  2.62000E+01 Dt=  5.00000E-02 [y] snes_conv_reason:   11
  newton =   1 [     545] linear =    99 [     60530] cuts =  0 [   0]
  --> max chng: dpmx=   1.1642E-10 dtmpmx=   8.0263E-11

== TH FLOW =====================================================================
 Step    537 Time=  2.62500E+01 Dt=  5.00000E-02 [y] snes_conv_reason:   11
  newton =   1 [     546] linear =    89 [     60619] cuts =  0 [   0]
  --> max chng: dpmx=   1.1642E-10 dtmpmx=   7.4136E-11

== TH FLOW =====================================================================
 Step    538 Time=  2.63000E+01 Dt=  5.00000E-02 [y] snes_conv_reason:   11
  newton =   1 [     547] linear =    97 [     60716] cuts =  0 [   0]
  --> max chng: dpmx=   1.1642E-10 dtmpmx=   7.8375E-11

== TH FLOW =====================================================================
 Step    539 Time=  2.63500E+01 Dt=  5.00000E-02 [y] snes_conv_reason:   11
  newton =   1 [     548] linear =    51 [     60767] cuts =  0 [   0]
  --> max chng: dpmx=   1.1642E-10 dtmpmx=   8.0650E-11

== TH FLOW =====================================================================
 Step    540 Time=  2.64000E+01 Dt=  5.00000E-02 [y] snes_conv_reason:   11
  newton =   1 [     549] linear =    94 [     60861] cuts =  0 [   0]
  --> max chng: dpmx=   1.1642E-10 dtmpmx=   8.7642E-11

== TH FLOW =====================================================================
 Step    541 Time=  2.64500E+01 Dt=  5.00000E-02 [y] snes_conv_reason:   11
  newton =   1 [     550] linear =    78 [     60939] cuts =  0 [   0]
  --> max chng: dpmx=   1.1642E-10 dtmpmx=   7.1866E-11

== TH FLOW =====================================================================
 Step    542 Time=  2.65000E+01 Dt=  5.00000E-02 [y] snes_conv_reason:   11
  newton =   1 [     551] linear =    60 [     60999] cuts =  0 [   0]
  --> max chng: dpmx=   2.3283E-10 dtmpmx=   7.5362E-11

== TH FLOW =====================================================================
 Step    543 Time=  2.65500E+01 Dt=  5.00000E-02 [y] snes_conv_reason:   11
  newton =   1 [     552] linear =    95 [     61094] cuts =  0 [   0]
  --> max chng: dpmx=   1.1642E-10 dtmpmx=   7.1617E-11

== TH FLOW =====================================================================
 Step    544 Time=  2.66000E+01 Dt=  5.00000E-02 [y] snes_conv_reason:   11
  newton =   1 [     553] linear =    73 [     61167] cuts =  0 [   0]
  --> max chng: dpmx=   1.1642E-10 dtmpmx=   6.8871E-11

== TH FLOW =====================================================================
 Step    545 Time=  2.66500E+01 Dt=  5.00000E-02 [y] snes_conv_reason:   11
  newton =   1 [     554] linear =   106 [     61273] cuts =  0 [   0]
  --> max chng: dpmx=   1.1642E-10 dtmpmx=   8.1727E-11

== TH FLOW =====================================================================
 Step    546 Time=  2.67000E+01 Dt=  5.00000E-02 [y] snes_conv_reason:   11
  newton =   1 [     555] linear =   112 [     61385] cuts =  0 [   0]
  --> max chng: dpmx=   1.1642E-10 dtmpmx=   7.3415E-11

== TH FLOW =====================================================================
 Step    547 Time=  2.67500E+01 Dt=  5.00000E-02 [y] snes_conv_reason:   11
  newton =   1 [     556] linear =    76 [     61461] cuts =  0 [   0]
  --> max chng: dpmx=   1.1642E-10 dtmpmx=   8.0522E-11

== TH FLOW =====================================================================
 Step    548 Time=  2.68000E+01 Dt=  5.00000E-02 [y] snes_conv_reason:   11
  newton =   1 [     557] linear =    75 [     61536] cuts =  0 [   0]
  --> max chng: dpmx=   1.1642E-10 dtmpmx=   7.7314E-11

== TH FLOW =====================================================================
 Step    549 Time=  2.68500E+01 Dt=  5.00000E-02 [y] snes_conv_reason:   11
  newton =   1 [     558] linear =    92 [     61628] cuts =  0 [   0]
  --> max chng: dpmx=   1.1642E-10 dtmpmx=   7.3381E-11

== TH FLOW =====================================================================
 Step    550 Time=  2.69000E+01 Dt=  5.00000E-02 [y] snes_conv_reason:   11
  newton =   1 [     559] linear =    82 [     61710] cuts =  0 [   0]
  --> max chng: dpmx=   1.1642E-10 dtmpmx=   7.2193E-11

== TH FLOW =====================================================================
 Step    551 Time=  2.69500E+01 Dt=  5.00000E-02 [y] snes_conv_reason:   11
  newton =   1 [     560] linear =    68 [     61778] cuts =  0 [   0]
  --> max chng: dpmx=   1.1642E-10 dtmpmx=   8.0632E-11

== TH FLOW =====================================================================
 Step    552 Time=  2.70000E+01 Dt=  5.00000E-02 [y] snes_conv_reason:   11
  newton =   1 [     561] linear =    76 [     61854] cuts =  0 [   0]
  --> max chng: dpmx=   2.3283E-10 dtmpmx=   7.7618E-11

== TH FLOW =====================================================================
 Step    553 Time=  2.70500E+01 Dt=  5.00000E-02 [y] snes_conv_reason:   11
  newton =   1 [     562] linear =    80 [     61934] cuts =  0 [   0]
  --> max chng: dpmx=   1.1642E-10 dtmpmx=   7.6465E-11

== TH FLOW =====================================================================
 Step    554 Time=  2.71000E+01 Dt=  5.00000E-02 [y] snes_conv_reason:   11
  newton =   1 [     563] linear =   114 [     62048] cuts =  0 [   0]
  --> max chng: dpmx=   2.3283E-10 dtmpmx=   7.8426E-11

== TH FLOW =====================================================================
 Step    555 Time=  2.71500E+01 Dt=  5.00000E-02 [y] snes_conv_reason:   11
  newton =   1 [     564] linear =   110 [     62158] cuts =  0 [   0]
  --> max chng: dpmx=   1.1642E-10 dtmpmx=   8.9694E-11

== TH FLOW =====================================================================
 Step    556 Time=  2.72000E+01 Dt=  5.00000E-02 [y] snes_conv_reason:   11
  newton =   1 [     565] linear =   119 [     62277] cuts =  0 [   0]
  --> max chng: dpmx=   2.3283E-10 dtmpmx=   8.2533E-11

== TH FLOW =====================================================================
 Step    557 Time=  2.72500E+01 Dt=  5.00000E-02 [y] snes_conv_reason:   11
  newton =   1 [     566] linear =    92 [     62369] cuts =  0 [   0]
  --> max chng: dpmx=   1.1642E-10 dtmpmx=   8.0078E-11

== TH FLOW =====================================================================
 Step    558 Time=  2.73000E+01 Dt=  5.00000E-02 [y] snes_conv_reason:   11
  newton =   1 [     567] linear =   104 [     62473] cuts =  0 [   0]
  --> max chng: dpmx=   2.3283E-10 dtmpmx=   8.6985E-11

== TH FLOW =====================================================================
 Step    559 Time=  2.73500E+01 Dt=  5.00000E-02 [y] snes_conv_reason:   11
  newton =   1 [     568] linear =    76 [     62549] cuts =  0 [   0]
  --> max chng: dpmx=   1.1642E-10 dtmpmx=   7.7092E-11

== TH FLOW =====================================================================
 Step    560 Time=  2.74000E+01 Dt=  5.00000E-02 [y] snes_conv_reason:   11
  newton =   1 [     569] linear =    76 [     62625] cuts =  0 [   0]
  --> max chng: dpmx=   1.1642E-10 dtmpmx=   7.8806E-11

== TH FLOW =====================================================================
 Step    561 Time=  2.74500E+01 Dt=  5.00000E-02 [y] snes_conv_reason:   11
  newton =   1 [     570] linear =    76 [     62701] cuts =  0 [   0]
  --> max chng: dpmx=   1.1642E-10 dtmpmx=   6.6665E-11

== TH FLOW =====================================================================
 Step    562 Time=  2.75000E+01 Dt=  5.00000E-02 [y] snes_conv_reason:   11
  newton =   1 [     571] linear =   104 [     62805] cuts =  0 [   0]
  --> max chng: dpmx=   1.1642E-10 dtmpmx=   7.4690E-11

 Wall Clock Time:  2.2482E+02 [sec]   3.7470E+00 [min]   6.2450E-02 [hr]
