
===================
  PFLOTRAN v3.0.1
===================

 Extent of Gridded Domain
  X: 2.5000000000000000 - 97.500000000000000
  Y: 2.5000000000000000 - 1277.5000000000000
  Z: 2.5000000000000000 - 2.5000000000000000


=+=+=+=+=+=+=+=+=+=+=+=+=+=+=+=+=+=+=+=+=+=+=+=+=+=+=+=+=+=+=+=+=+=+=+=+=+=+=+=+

  Initial Condition

--------------------------------------------------------------------------------
          Flow Condition:   initial
                  Region:   all
--------------------------------------------------------------------------------

  Flow Condition: initial
    Synchronize time with update: no
    Time units: yr
    Length units: m
      Datum:
        Dataset: Unnamed Ascii Dataset
          Type: dataset_ascii_type
          Transient: no
          Array Rank:  3

    Sub Condition: pressure
      Type: hydrostatic
      Gradient:
        Dataset: Unnamed Ascii Dataset
          Type: dataset_ascii_type
          Transient: no
          Array Rank:  3
      Data:
        Dataset: Unnamed Ascii Dataset
          Type: dataset_ascii_type
          Transient: no
          Array Rank:  1

    Sub Condition: temperature
      Type: dirichlet
      Gradient:
      Data:
        Dataset: Unnamed Ascii Dataset
          Type: dataset_ascii_type
          Transient: no
          Array Rank:  1

--------------------------------------------------------------------------------

=+=+=+=+=+=+=+=+=+=+=+=+=+=+=+=+=+=+=+=+=+=+=+=+=+=+=+=+=+=+=+=+=+=+=+=+=+=+=+=+

  Boundary Condition

--------------------------------------------------------------------------------
          Flow Condition:   initial
                  Region:   north
--------------------------------------------------------------------------------

  Flow Condition: initial
    Synchronize time with update: no
    Time units: yr
    Length units: m
      Datum:
        Dataset: Unnamed Ascii Dataset
          Type: dataset_ascii_type
          Transient: no
          Array Rank:  3

    Sub Condition: pressure
      Type: hydrostatic
      Gradient:
        Dataset: Unnamed Ascii Dataset
          Type: dataset_ascii_type
          Transient: no
          Array Rank:  3
      Data:
        Dataset: Unnamed Ascii Dataset
          Type: dataset_ascii_type
          Transient: no
          Array Rank:  1

    Sub Condition: temperature
      Type: dirichlet
      Gradient:
      Data:
        Dataset: Unnamed Ascii Dataset
          Type: dataset_ascii_type
          Transient: no
          Array Rank:  1

--------------------------------------------------------------------------------

=+=+=+=+=+=+=+=+=+=+=+=+=+=+=+=+=+=+=+=+=+=+=+=+=+=+=+=+=+=+=+=+=+=+=+=+=+=+=+=+

  Boundary Condition

--------------------------------------------------------------------------------
          Flow Condition:   initial
                  Region:   south
--------------------------------------------------------------------------------

  Flow Condition: initial
    Synchronize time with update: no
    Time units: yr
    Length units: m
      Datum:
        Dataset: Unnamed Ascii Dataset
          Type: dataset_ascii_type
          Transient: no
          Array Rank:  3

    Sub Condition: pressure
      Type: hydrostatic
      Gradient:
        Dataset: Unnamed Ascii Dataset
          Type: dataset_ascii_type
          Transient: no
          Array Rank:  3
      Data:
        Dataset: Unnamed Ascii Dataset
          Type: dataset_ascii_type
          Transient: no
          Array Rank:  1

    Sub Condition: temperature
      Type: dirichlet
      Gradient:
      Data:
        Dataset: Unnamed Ascii Dataset
          Type: dataset_ascii_type
          Transient: no
          Array Rank:  1

--------------------------------------------------------------------------------

=+=+=+=+=+=+=+=+=+=+=+=+=+=+=+=+=+=+=+=+=+=+=+=+=+=+=+=+=+=+=+=+=+=+=+=+=+=+=+=+

  Source Sink

--------------------------------------------------------------------------------
          Flow Condition:   injection
                  Region:   heatpump_inject0
--------------------------------------------------------------------------------

  Flow Condition: injection
    Synchronize time with update: no
    Time units: yr
    Length units: m
      Datum:

    Sub Condition: rate
      Type: scaled volumetric rate
      Gradient:
      Data:
        Dataset: Unnamed Ascii Dataset
          Type: dataset_ascii_type
          Is transient?: yes
          Number of times:      3
          Is cyclic?: no
          Buffer:
            Rank:  2
            Dims:    1   3
            Buffer Slice Size:   0
          Array Rank:  1

    Sub Condition: temperature
      Type: dirichlet
      Gradient:
      Data:
        Dataset: Unnamed Ascii Dataset
          Type: dataset_ascii_type
          Transient: no
          Array Rank:  1

--------------------------------------------------------------------------------

 Requested processors =    32

FLOW Time Stepper
                 acceleration: on
       acceleration threshold: 5
       number of ramp entries: 5
                ramp entry #1: 2.0000
                ramp entry #2: 2.0000
                ramp entry #3: 2.0000
                ramp entry #4: 2.0000
                ramp entry #5: 2.0000
                ramp entry #6: 1.8000
                ramp entry #7: 1.6000
                ramp entry #8: 1.4000
                ramp entry #9: 1.2000
               ramp entry #10: 1.0000
               ramp entry #11: 1.0000
               ramp entry #12: 1.0000
               ramp entry #13: 1.0000
      maximum number of steps: 999999
constant time steps threshold: 5
       maximum number of cuts: 16
             reduction factor: 5.000000E-01
        maximum growth factor: 2.000000E+00

FLOW Newton Solver
                         atol: 1.000000E-50
                         rtol: 1.000000E-03
                         stol: 1.000000E-08
                         dtol: 1.000000E+04
                      maxnorm: 1.000000E+20
                    inftolres: -9.990000E+02
                    inftolupd: 1.000000E+00
                 inftolrelupd: -9.990000E+02
                 inftolsclres: -9.990000E+02
                     max iter: 50
                     min iter: 1
                         maxf: 10000
                  matrix type: baij
         precond. matrix type: baij
               inexact newton: off
            print convergence: on
   print detailed convergence: off
          check infinity norm: on

FLOW Linear Solver
                       solver: bcgs
               preconditioner: bjacobi
                         atol: 1.000000E-50
                         rtol: 1.000000E-05
                         dtol: 1.000000E+04
            maximum iteration: 10000

== TH FLOW =====================================================================
 Step      1 Time=  1.00000E-05 Dt=  1.00000E-05 [y] snes_conv_reason:   11
  newton =   1 [       1] linear =   113 [       113] cuts =  0 [   0]
  --> max chng: dpmx=   4.3642E-02 dtmpmx=   1.3897E-08

== TH FLOW =====================================================================
 Step      2 Time=  3.00000E-05 Dt=  2.00000E-05 [y] snes_conv_reason:   11
  newton =   1 [       2] linear =   117 [       230] cuts =  0 [   0]
  --> max chng: dpmx=   3.7614E-03 dtmpmx=   2.7689E-08

== TH FLOW =====================================================================
 Step      3 Time=  7.00000E-05 Dt=  4.00000E-05 [y] snes_conv_reason:   11
  newton =   1 [       3] linear =   105 [       335] cuts =  0 [   0]
  --> max chng: dpmx=   1.6126E-04 dtmpmx=   5.5369E-08

== TH FLOW =====================================================================
 Step      4 Time=  1.50000E-04 Dt=  8.00000E-05 [y] snes_conv_reason:   11
  newton =   1 [       4] linear =   136 [       471] cuts =  0 [   0]
  --> max chng: dpmx=   3.3457E-06 dtmpmx=   1.1074E-07

== TH FLOW =====================================================================
 Step      5 Time=  3.10000E-04 Dt=  1.60000E-04 [y] snes_conv_reason:   11
  newton =   1 [       5] linear =   118 [       589] cuts =  0 [   0]
  --> max chng: dpmx=   5.6066E-07 dtmpmx=   2.2148E-07

== TH FLOW =====================================================================
 Step      6 Time=  6.30000E-04 Dt=  3.20000E-04 [y] snes_conv_reason:   11
  newton =   1 [       6] linear =   117 [       706] cuts =  0 [   0]
  --> max chng: dpmx=   1.1469E-06 dtmpmx=   4.4295E-07

== TH FLOW =====================================================================
 Step      7 Time=  1.27000E-03 Dt=  6.40000E-04 [y] snes_conv_reason:   11
  newton =   1 [       7] linear =   123 [       829] cuts =  0 [   0]
  --> max chng: dpmx=   2.3799E-06 dtmpmx=   8.8590E-07

== TH FLOW =====================================================================
 Step      8 Time=  2.55000E-03 Dt=  1.28000E-03 [y] snes_conv_reason:   11
  newton =   1 [       8] linear =   122 [       951] cuts =  0 [   0]
  --> max chng: dpmx=   5.1197E-06 dtmpmx=   1.7718E-06

== TH FLOW =====================================================================
 Step      9 Time=  5.11000E-03 Dt=  2.56000E-03 [y] snes_conv_reason:   11
  newton =   1 [       9] linear =   126 [      1077] cuts =  0 [   0]
  --> max chng: dpmx=   1.1653E-05 dtmpmx=   3.5436E-06

== TH FLOW =====================================================================
 Step     10 Time=  1.02300E-02 Dt=  5.12000E-03 [y] snes_conv_reason:   11
  newton =   1 [      10] linear =   124 [      1201] cuts =  0 [   0]
  --> max chng: dpmx=   2.9011E-05 dtmpmx=   7.0874E-06

== TH FLOW =====================================================================
 Step     11 Time=  2.04700E-02 Dt=  1.02400E-02 [y] snes_conv_reason:   11
  newton =   1 [      11] linear =   130 [      1331] cuts =  0 [   0]
  --> max chng: dpmx=   8.0494E-05 dtmpmx=   1.4174E-05

== TH FLOW =====================================================================
 Step     12 Time=  4.09500E-02 Dt=  2.04800E-02 [y] snes_conv_reason:   11
  newton =   1 [      12] linear =   128 [      1459] cuts =  0 [   0]
  --> max chng: dpmx=   2.4882E-04 dtmpmx=   2.8349E-05

== TH FLOW =====================================================================
 Step     13 Time=  8.19100E-02 Dt=  4.09600E-02 [y] snes_conv_reason:   11
  newton =   1 [      13] linear =   131 [      1590] cuts =  0 [   0]
  --> max chng: dpmx=   8.3493E-04 dtmpmx=   5.6698E-05

== TH FLOW =====================================================================
 Step     14 Time=  1.00000E-01 Dt=  1.80900E-02 [y] snes_conv_reason:   11
  newton =   1 [      14] linear =   135 [      1725] cuts =  0 [   0]
  --> max chng: dpmx=   4.3466E-04 dtmpmx=   2.5041E-05

== TH FLOW =====================================================================
 Step     15 Time=  1.50000E-01 Dt=  5.00000E-02 [y] snes_conv_reason:   11
  newton =   1 [      15] linear =   126 [      1851] cuts =  0 [   0]
  --> max chng: dpmx=   1.6804E-03 dtmpmx=   6.9211E-05

== TH FLOW =====================================================================
 Step     16 Time=  2.00000E-01 Dt=  5.00000E-02 [y] snes_conv_reason:   11
  newton =   1 [      16] linear =   132 [      1983] cuts =  0 [   0]
  --> max chng: dpmx=   2.1431E-03 dtmpmx=   6.9211E-05

== TH FLOW =====================================================================
 Step     17 Time=  2.50000E-01 Dt=  5.00000E-02 [y] snes_conv_reason:   11
  newton =   2 [      18] linear =   268 [      2251] cuts =  0 [   0]
  --> max chng: dpmx=   9.9071E+01 dtmpmx=   1.9935E+00

== TH FLOW =====================================================================
 Step     18 Time=  3.00000E-01 Dt=  5.00000E-02 [y] snes_conv_reason:   11
  newton =   2 [      20] linear =   271 [      2522] cuts =  0 [   0]
  --> max chng: dpmx=   1.3550E+00 dtmpmx=   7.6577E-01

== TH FLOW =====================================================================
 Step     19 Time=  3.50000E-01 Dt=  5.00000E-02 [y] snes_conv_reason:   11
  newton =   2 [      22] linear =   255 [      2777] cuts =  0 [   0]
  --> max chng: dpmx=   1.2627E+00 dtmpmx=   5.5280E-01

== TH FLOW =====================================================================
 Step     20 Time=  4.00000E-01 Dt=  5.00000E-02 [y] snes_conv_reason:   11
  newton =   2 [      24] linear =   268 [      3045] cuts =  0 [   0]
  --> max chng: dpmx=   1.2095E+00 dtmpmx=   4.5027E-01

== TH FLOW =====================================================================
 Step     21 Time=  4.50000E-01 Dt=  5.00000E-02 [y] snes_conv_reason:   11
  newton =   2 [      26] linear =   265 [      3310] cuts =  0 [   0]
  --> max chng: dpmx=   1.1676E+00 dtmpmx=   3.8575E-01

== TH FLOW =====================================================================
 Step     22 Time=  5.00000E-01 Dt=  5.00000E-02 [y] snes_conv_reason:   11
  newton =   2 [      28] linear =   262 [      3572] cuts =  0 [   0]
  --> max chng: dpmx=   1.1310E+00 dtmpmx=   3.4163E-01

== TH FLOW =====================================================================
 Step     23 Time=  5.50000E-01 Dt=  5.00000E-02 [y] snes_conv_reason:   11
  newton =   2 [      30] linear =   252 [      3824] cuts =  0 [   0]
  --> max chng: dpmx=   1.0975E+00 dtmpmx=   3.0808E-01

== TH FLOW =====================================================================
 Step     24 Time=  6.00000E-01 Dt=  5.00000E-02 [y] snes_conv_reason:   11
  newton =   2 [      32] linear =   269 [      4093] cuts =  0 [   0]
  --> max chng: dpmx=   1.0659E+00 dtmpmx=   2.8126E-01

== TH FLOW =====================================================================
 Step     25 Time=  6.50000E-01 Dt=  5.00000E-02 [y] snes_conv_reason:    3
  newton =   1 [      33] linear =   134 [      4227] cuts =  0 [   0]
  --> max chng: dpmx=   1.0355E+00 dtmpmx=   2.5989E-01

== TH FLOW =====================================================================
 Step     26 Time=  7.00000E-01 Dt=  5.00000E-02 [y] snes_conv_reason:    3
  newton =   1 [      34] linear =   136 [      4363] cuts =  0 [   0]
  --> max chng: dpmx=   1.0065E+00 dtmpmx=   2.4187E-01

== TH FLOW =====================================================================
 Step     27 Time=  7.50000E-01 Dt=  5.00000E-02 [y] snes_conv_reason:   11
  newton =   1 [      35] linear =   125 [      4488] cuts =  0 [   0]
  --> max chng: dpmx=   9.7850E-01 dtmpmx=   2.2627E-01

== TH FLOW =====================================================================
 Step     28 Time=  8.00000E-01 Dt=  5.00000E-02 [y] snes_conv_reason:   11
  newton =   1 [      36] linear =   129 [      4617] cuts =  0 [   0]
  --> max chng: dpmx=   9.5008E-01 dtmpmx=   2.1291E-01

== TH FLOW =====================================================================
 Step     29 Time=  8.50000E-01 Dt=  5.00000E-02 [y] snes_conv_reason:   11
  newton =   1 [      37] linear =   129 [      4746] cuts =  0 [   0]
  --> max chng: dpmx=   9.2407E-01 dtmpmx=   2.0117E-01

== TH FLOW =====================================================================
 Step     30 Time=  9.00000E-01 Dt=  5.00000E-02 [y] snes_conv_reason:   11
  newton =   1 [      38] linear =   133 [      4879] cuts =  0 [   0]
  --> max chng: dpmx=   8.9680E-01 dtmpmx=   1.9062E-01

== TH FLOW =====================================================================
 Step     31 Time=  9.50000E-01 Dt=  5.00000E-02 [y] snes_conv_reason:   11
  newton =   1 [      39] linear =   122 [      5001] cuts =  0 [   0]
  --> max chng: dpmx=   8.7028E-01 dtmpmx=   1.8125E-01

== TH FLOW =====================================================================
 Step     32 Time=  1.00000E+00 Dt=  5.00000E-02 [y] snes_conv_reason:   11
  newton =   1 [      40] linear =   124 [      5125] cuts =  0 [   0]
  --> max chng: dpmx=   8.4441E-01 dtmpmx=   1.7284E-01

== TH FLOW =====================================================================
 Step     33 Time=  1.05000E+00 Dt=  5.00000E-02 [y] snes_conv_reason:   11
  newton =   1 [      41] linear =   131 [      5256] cuts =  0 [   0]
  --> max chng: dpmx=   8.1890E-01 dtmpmx=   1.6511E-01

== TH FLOW =====================================================================
 Step     34 Time=  1.10000E+00 Dt=  5.00000E-02 [y] snes_conv_reason:   11
  newton =   1 [      42] linear =   128 [      5384] cuts =  0 [   0]
  --> max chng: dpmx=   7.9342E-01 dtmpmx=   1.5808E-01

== TH FLOW =====================================================================
 Step     35 Time=  1.15000E+00 Dt=  5.00000E-02 [y] snes_conv_reason:   11
  newton =   1 [      43] linear =   124 [      5508] cuts =  0 [   0]
  --> max chng: dpmx=   7.6858E-01 dtmpmx=   1.5169E-01

== TH FLOW =====================================================================
 Step     36 Time=  1.20000E+00 Dt=  5.00000E-02 [y] snes_conv_reason:   11
  newton =   1 [      44] linear =   128 [      5636] cuts =  0 [   0]
  --> max chng: dpmx=   7.4314E-01 dtmpmx=   1.4574E-01

== TH FLOW =====================================================================
 Step     37 Time=  1.25000E+00 Dt=  5.00000E-02 [y] snes_conv_reason:   11
  newton =   1 [      45] linear =   130 [      5766] cuts =  0 [   0]
  --> max chng: dpmx=   7.1879E-01 dtmpmx=   1.4023E-01

== TH FLOW =====================================================================
 Step     38 Time=  1.30000E+00 Dt=  5.00000E-02 [y] snes_conv_reason:   11
  newton =   1 [      46] linear =   127 [      5893] cuts =  0 [   0]
  --> max chng: dpmx=   6.9396E-01 dtmpmx=   1.3518E-01

== TH FLOW =====================================================================
 Step     39 Time=  1.35000E+00 Dt=  5.00000E-02 [y] snes_conv_reason:   11
  newton =   1 [      47] linear =   130 [      6023] cuts =  0 [   0]
  --> max chng: dpmx=   6.6986E-01 dtmpmx=   1.3043E-01

== TH FLOW =====================================================================
 Step     40 Time=  1.40000E+00 Dt=  5.00000E-02 [y] snes_conv_reason:   11
  newton =   1 [      48] linear =   120 [      6143] cuts =  0 [   0]
  --> max chng: dpmx=   6.4559E-01 dtmpmx=   1.2597E-01

== TH FLOW =====================================================================
 Step     41 Time=  1.45000E+00 Dt=  5.00000E-02 [y] snes_conv_reason:   11
  newton =   1 [      49] linear =   122 [      6265] cuts =  0 [   0]
  --> max chng: dpmx=   6.2153E-01 dtmpmx=   1.2187E-01

== TH FLOW =====================================================================
 Step     42 Time=  1.50000E+00 Dt=  5.00000E-02 [y] snes_conv_reason:   11
  newton =   1 [      50] linear =   126 [      6391] cuts =  0 [   0]
  --> max chng: dpmx=   5.9743E-01 dtmpmx=   1.1799E-01

== TH FLOW =====================================================================
 Step     43 Time=  1.55000E+00 Dt=  5.00000E-02 [y] snes_conv_reason:   11
  newton =   1 [      51] linear =   127 [      6518] cuts =  0 [   0]
  --> max chng: dpmx=   5.7435E-01 dtmpmx=   1.1430E-01

== TH FLOW =====================================================================
 Step     44 Time=  1.60000E+00 Dt=  5.00000E-02 [y] snes_conv_reason:   11
  newton =   1 [      52] linear =   129 [      6647] cuts =  0 [   0]
  --> max chng: dpmx=   5.4990E-01 dtmpmx=   1.1090E-01

== TH FLOW =====================================================================
 Step     45 Time=  1.65000E+00 Dt=  5.00000E-02 [y] snes_conv_reason:   11
  newton =   1 [      53] linear =   127 [      6774] cuts =  0 [   0]
  --> max chng: dpmx=   5.2643E-01 dtmpmx=   1.0765E-01

== TH FLOW =====================================================================
 Step     46 Time=  1.70000E+00 Dt=  5.00000E-02 [y] snes_conv_reason:   11
  newton =   1 [      54] linear =   123 [      6897] cuts =  0 [   0]
  --> max chng: dpmx=   5.2321E-01 dtmpmx=   1.0456E-01

== TH FLOW =====================================================================
 Step     47 Time=  1.75000E+00 Dt=  5.00000E-02 [y] snes_conv_reason:   11
  newton =   1 [      55] linear =   111 [      7008] cuts =  0 [   0]
  --> max chng: dpmx=   5.3898E-01 dtmpmx=   1.0167E-01

== TH FLOW =====================================================================
 Step     48 Time=  1.80000E+00 Dt=  5.00000E-02 [y] snes_conv_reason:   11
  newton =   1 [      56] linear =   128 [      7136] cuts =  0 [   0]
  --> max chng: dpmx=   5.5487E-01 dtmpmx=   9.8926E-02

== TH FLOW =====================================================================
 Step     49 Time=  1.85000E+00 Dt=  5.00000E-02 [y] snes_conv_reason:   11
  newton =   1 [      57] linear =   126 [      7262] cuts =  0 [   0]
  --> max chng: dpmx=   5.7082E-01 dtmpmx=   9.6292E-02

== TH FLOW =====================================================================
 Step     50 Time=  1.90000E+00 Dt=  5.00000E-02 [y] snes_conv_reason:   11
  newton =   1 [      58] linear =   133 [      7395] cuts =  0 [   0]
  --> max chng: dpmx=   5.8689E-01 dtmpmx=   9.3812E-02

== TH FLOW =====================================================================
 Step     51 Time=  1.95000E+00 Dt=  5.00000E-02 [y] snes_conv_reason:   11
  newton =   1 [      59] linear =   131 [      7526] cuts =  0 [   0]
  --> max chng: dpmx=   6.0304E-01 dtmpmx=   9.1454E-02

== TH FLOW =====================================================================
 Step     52 Time=  2.00000E+00 Dt=  5.00000E-02 [y] snes_conv_reason:   11
  newton =   1 [      60] linear =   129 [      7655] cuts =  0 [   0]
  --> max chng: dpmx=   6.1914E-01 dtmpmx=   8.9186E-02

== TH FLOW =====================================================================
 Step     53 Time=  2.05000E+00 Dt=  5.00000E-02 [y] snes_conv_reason:   11
  newton =   1 [      61] linear =   130 [      7785] cuts =  0 [   0]
  --> max chng: dpmx=   6.3563E-01 dtmpmx=   8.7033E-02

== TH FLOW =====================================================================
 Step     54 Time=  2.10000E+00 Dt=  5.00000E-02 [y] snes_conv_reason:   11
  newton =   1 [      62] linear =   126 [      7911] cuts =  0 [   0]
  --> max chng: dpmx=   6.5180E-01 dtmpmx=   8.4988E-02

== TH FLOW =====================================================================
 Step     55 Time=  2.15000E+00 Dt=  5.00000E-02 [y] snes_conv_reason:   11
  newton =   1 [      63] linear =   124 [      8035] cuts =  0 [   0]
  --> max chng: dpmx=   6.6839E-01 dtmpmx=   8.3015E-02

== TH FLOW =====================================================================
 Step     56 Time=  2.20000E+00 Dt=  5.00000E-02 [y] snes_conv_reason:   11
  newton =   1 [      64] linear =   123 [      8158] cuts =  0 [   0]
  --> max chng: dpmx=   6.8504E-01 dtmpmx=   8.1129E-02

== TH FLOW =====================================================================
 Step     57 Time=  2.25000E+00 Dt=  5.00000E-02 [y] snes_conv_reason:   11
  newton =   1 [      65] linear =   118 [      8276] cuts =  0 [   0]
  --> max chng: dpmx=   7.0122E-01 dtmpmx=   7.9339E-02

== TH FLOW =====================================================================
 Step     58 Time=  2.30000E+00 Dt=  5.00000E-02 [y] snes_conv_reason:   11
  newton =   1 [      66] linear =   116 [      8392] cuts =  0 [   0]
  --> max chng: dpmx=   7.1781E-01 dtmpmx=   7.7608E-02

== TH FLOW =====================================================================
 Step     59 Time=  2.35000E+00 Dt=  5.00000E-02 [y] snes_conv_reason:   11
  newton =   1 [      67] linear =   121 [      8513] cuts =  0 [   0]
  --> max chng: dpmx=   7.3446E-01 dtmpmx=   7.5942E-02

== TH FLOW =====================================================================
 Step     60 Time=  2.40000E+00 Dt=  5.00000E-02 [y] snes_conv_reason:   11
  newton =   1 [      68] linear =   123 [      8636] cuts =  0 [   0]
  --> max chng: dpmx=   7.5056E-01 dtmpmx=   7.4364E-02

== TH FLOW =====================================================================
 Step     61 Time=  2.45000E+00 Dt=  5.00000E-02 [y] snes_conv_reason:   11
  newton =   1 [      69] linear =   126 [      8762] cuts =  0 [   0]
  --> max chng: dpmx=   7.6692E-01 dtmpmx=   7.2833E-02

== TH FLOW =====================================================================
 Step     62 Time=  2.50000E+00 Dt=  5.00000E-02 [y] snes_conv_reason:   11
  newton =   1 [      70] linear =   132 [      8894] cuts =  0 [   0]
  --> max chng: dpmx=   7.8305E-01 dtmpmx=   7.1353E-02

== TH FLOW =====================================================================
 Step     63 Time=  2.55000E+00 Dt=  5.00000E-02 [y] snes_conv_reason:   11
  newton =   1 [      71] linear =   130 [      9024] cuts =  0 [   0]
  --> max chng: dpmx=   7.9878E-01 dtmpmx=   6.9951E-02

== TH FLOW =====================================================================
 Step     64 Time=  2.60000E+00 Dt=  5.00000E-02 [y] snes_conv_reason:   11
  newton =   1 [      72] linear =   122 [      9146] cuts =  0 [   0]
  --> max chng: dpmx=   8.1433E-01 dtmpmx=   6.8590E-02

== TH FLOW =====================================================================
 Step     65 Time=  2.65000E+00 Dt=  5.00000E-02 [y] snes_conv_reason:   11
  newton =   1 [      73] linear =   120 [      9266] cuts =  0 [   0]
  --> max chng: dpmx=   8.2909E-01 dtmpmx=   6.7267E-02

== TH FLOW =====================================================================
 Step     66 Time=  2.70000E+00 Dt=  5.00000E-02 [y] snes_conv_reason:   11
  newton =   1 [      74] linear =   123 [      9389] cuts =  0 [   0]
  --> max chng: dpmx=   8.4330E-01 dtmpmx=   6.6014E-02

== TH FLOW =====================================================================
 Step     67 Time=  2.75000E+00 Dt=  5.00000E-02 [y] snes_conv_reason:   11
  newton =   1 [      75] linear =   125 [      9514] cuts =  0 [   0]
  --> max chng: dpmx=   8.5646E-01 dtmpmx=   6.4796E-02

== TH FLOW =====================================================================
 Step     68 Time=  2.80000E+00 Dt=  5.00000E-02 [y] snes_conv_reason:   11
  newton =   1 [      76] linear =   120 [      9634] cuts =  0 [   0]
  --> max chng: dpmx=   8.6848E-01 dtmpmx=   6.3609E-02

== TH FLOW =====================================================================
 Step     69 Time=  2.85000E+00 Dt=  5.00000E-02 [y] snes_conv_reason:   11
  newton =   1 [      77] linear =   124 [      9758] cuts =  0 [   0]
  --> max chng: dpmx=   8.7873E-01 dtmpmx=   6.2480E-02

== TH FLOW =====================================================================
 Step     70 Time=  2.90000E+00 Dt=  5.00000E-02 [y] snes_conv_reason:   11
  newton =   1 [      78] linear =   115 [      9873] cuts =  0 [   0]
  --> max chng: dpmx=   8.8748E-01 dtmpmx=   6.1384E-02

== TH FLOW =====================================================================
 Step     71 Time=  2.95000E+00 Dt=  5.00000E-02 [y] snes_conv_reason:   11
  newton =   1 [      79] linear =   118 [      9991] cuts =  0 [   0]
  --> max chng: dpmx=   8.9364E-01 dtmpmx=   6.0316E-02

== TH FLOW =====================================================================
 Step     72 Time=  3.00000E+00 Dt=  5.00000E-02 [y] snes_conv_reason:   11
  newton =   1 [      80] linear =   115 [     10106] cuts =  0 [   0]
  --> max chng: dpmx=   8.9778E-01 dtmpmx=   5.9293E-02

== TH FLOW =====================================================================
 Step     73 Time=  3.05000E+00 Dt=  5.00000E-02 [y] snes_conv_reason:   11
  newton =   1 [      81] linear =   115 [     10221] cuts =  0 [   0]
  --> max chng: dpmx=   8.9831E-01 dtmpmx=   5.8303E-02

== TH FLOW =====================================================================
 Step     74 Time=  3.10000E+00 Dt=  5.00000E-02 [y] snes_conv_reason:   11
  newton =   1 [      82] linear =   123 [     10344] cuts =  0 [   0]
  --> max chng: dpmx=   8.9558E-01 dtmpmx=   5.7336E-02

== TH FLOW =====================================================================
 Step     75 Time=  3.15000E+00 Dt=  5.00000E-02 [y] snes_conv_reason:   11
  newton =   1 [      83] linear =   120 [     10464] cuts =  0 [   0]
  --> max chng: dpmx=   8.8925E-01 dtmpmx=   5.6406E-02

== TH FLOW =====================================================================
 Step     76 Time=  3.20000E+00 Dt=  5.00000E-02 [y] snes_conv_reason:   11
  newton =   1 [      84] linear =   130 [     10594] cuts =  0 [   0]
  --> max chng: dpmx=   8.7903E-01 dtmpmx=   5.5507E-02

== TH FLOW =====================================================================
 Step     77 Time=  3.25000E+00 Dt=  5.00000E-02 [y] snes_conv_reason:   11
  newton =   1 [      85] linear =   121 [     10715] cuts =  0 [   0]
  --> max chng: dpmx=   8.6430E-01 dtmpmx=   5.4628E-02

== TH FLOW =====================================================================
 Step     78 Time=  3.30000E+00 Dt=  5.00000E-02 [y] snes_conv_reason:   11
  newton =   1 [      86] linear =   108 [     10823] cuts =  0 [   0]
  --> max chng: dpmx=   8.4515E-01 dtmpmx=   5.3779E-02

== TH FLOW =====================================================================
 Step     79 Time=  3.35000E+00 Dt=  5.00000E-02 [y] snes_conv_reason:   11
  newton =   1 [      87] linear =   125 [     10948] cuts =  0 [   0]
  --> max chng: dpmx=   8.2131E-01 dtmpmx=   5.2959E-02

== TH FLOW =====================================================================
 Step     80 Time=  3.40000E+00 Dt=  5.00000E-02 [y] snes_conv_reason:   11
  newton =   1 [      88] linear =   125 [     11073] cuts =  0 [   0]
  --> max chng: dpmx=   7.9373E-01 dtmpmx=   5.2157E-02

== TH FLOW =====================================================================
 Step     81 Time=  3.45000E+00 Dt=  5.00000E-02 [y] snes_conv_reason:   11
  newton =   1 [      89] linear =   114 [     11187] cuts =  0 [   0]
  --> max chng: dpmx=   7.6132E-01 dtmpmx=   5.1379E-02

== TH FLOW =====================================================================
 Step     82 Time=  3.50000E+00 Dt=  5.00000E-02 [y] snes_conv_reason:   11
  newton =   1 [      90] linear =   127 [     11314] cuts =  0 [   0]
  --> max chng: dpmx=   7.2548E-01 dtmpmx=   5.0629E-02

== TH FLOW =====================================================================
 Step     83 Time=  3.55000E+00 Dt=  5.00000E-02 [y] snes_conv_reason:   11
  newton =   1 [      91] linear =   119 [     11433] cuts =  0 [   0]
  --> max chng: dpmx=   6.8609E-01 dtmpmx=   4.9894E-02

== TH FLOW =====================================================================
 Step     84 Time=  3.60000E+00 Dt=  5.00000E-02 [y] snes_conv_reason:   11
  newton =   1 [      92] linear =   122 [     11555] cuts =  0 [   0]
  --> max chng: dpmx=   6.4387E-01 dtmpmx=   4.9178E-02

== TH FLOW =====================================================================
 Step     85 Time=  3.65000E+00 Dt=  5.00000E-02 [y] snes_conv_reason:   11
  newton =   1 [      93] linear =   123 [     11678] cuts =  0 [   0]
  --> max chng: dpmx=   5.9986E-01 dtmpmx=   4.8490E-02

== TH FLOW =====================================================================
 Step     86 Time=  3.70000E+00 Dt=  5.00000E-02 [y] snes_conv_reason:   11
  newton =   1 [      94] linear =   126 [     11804] cuts =  0 [   0]
  --> max chng: dpmx=   5.5419E-01 dtmpmx=   4.7815E-02

== TH FLOW =====================================================================
 Step     87 Time=  3.75000E+00 Dt=  5.00000E-02 [y] snes_conv_reason:   11
  newton =   1 [      95] linear =   119 [     11923] cuts =  0 [   0]
  --> max chng: dpmx=   5.0771E-01 dtmpmx=   4.7094E-02

== TH FLOW =====================================================================
 Step     88 Time=  3.80000E+00 Dt=  5.00000E-02 [y] snes_conv_reason:   11
  newton =   1 [      96] linear =   127 [     12050] cuts =  0 [   0]
  --> max chng: dpmx=   4.6140E-01 dtmpmx=   4.5895E-02

== TH FLOW =====================================================================
 Step     89 Time=  3.85000E+00 Dt=  5.00000E-02 [y] snes_conv_reason:   11
  newton =   1 [      97] linear =   129 [     12179] cuts =  0 [   0]
  --> max chng: dpmx=   4.1582E-01 dtmpmx=   4.4258E-02

== TH FLOW =====================================================================
 Step     90 Time=  3.90000E+00 Dt=  5.00000E-02 [y] snes_conv_reason:   11
  newton =   1 [      98] linear =   129 [     12308] cuts =  0 [   0]
  --> max chng: dpmx=   3.7156E-01 dtmpmx=   4.2262E-02

== TH FLOW =====================================================================
 Step     91 Time=  3.95000E+00 Dt=  5.00000E-02 [y] snes_conv_reason:   11
  newton =   1 [      99] linear =   130 [     12438] cuts =  0 [   0]
  --> max chng: dpmx=   3.2926E-01 dtmpmx=   3.9886E-02

== TH FLOW =====================================================================
 Step     92 Time=  4.00000E+00 Dt=  5.00000E-02 [y] snes_conv_reason:   11
  newton =   1 [     100] linear =   131 [     12569] cuts =  0 [   0]
  --> max chng: dpmx=   2.8928E-01 dtmpmx=   3.7215E-02

== TH FLOW =====================================================================
 Step     93 Time=  4.05000E+00 Dt=  5.00000E-02 [y] snes_conv_reason:   11
  newton =   1 [     101] linear =   133 [     12702] cuts =  0 [   0]
  --> max chng: dpmx=   2.5200E-01 dtmpmx=   3.4337E-02

== TH FLOW =====================================================================
 Step     94 Time=  4.10000E+00 Dt=  5.00000E-02 [y] snes_conv_reason:   11
  newton =   1 [     102] linear =   133 [     12835] cuts =  0 [   0]
  --> max chng: dpmx=   2.1769E-01 dtmpmx=   3.1338E-02

== TH FLOW =====================================================================
 Step     95 Time=  4.15000E+00 Dt=  5.00000E-02 [y] snes_conv_reason:   11
  newton =   1 [     103] linear =   133 [     12968] cuts =  0 [   0]
  --> max chng: dpmx=   1.8644E-01 dtmpmx=   2.8298E-02

== TH FLOW =====================================================================
 Step     96 Time=  4.20000E+00 Dt=  5.00000E-02 [y] snes_conv_reason:   11
  newton =   1 [     104] linear =   129 [     13097] cuts =  0 [   0]
  --> max chng: dpmx=   1.5840E-01 dtmpmx=   2.5288E-02

== TH FLOW =====================================================================
 Step     97 Time=  4.25000E+00 Dt=  5.00000E-02 [y] snes_conv_reason:   11
  newton =   1 [     105] linear =   132 [     13229] cuts =  0 [   0]
  --> max chng: dpmx=   1.3345E-01 dtmpmx=   2.2370E-02

== TH FLOW =====================================================================
 Step     98 Time=  4.30000E+00 Dt=  5.00000E-02 [y] snes_conv_reason:   11
  newton =   1 [     106] linear =   134 [     13363] cuts =  0 [   0]
  --> max chng: dpmx=   1.1146E-01 dtmpmx=   1.9593E-02

== TH FLOW =====================================================================
 Step     99 Time=  4.35000E+00 Dt=  5.00000E-02 [y] snes_conv_reason:   11
  newton =   1 [     107] linear =   134 [     13497] cuts =  0 [   0]
  --> max chng: dpmx=   9.2376E-02 dtmpmx=   1.6994E-02

== TH FLOW =====================================================================
 Step    100 Time=  4.40000E+00 Dt=  5.00000E-02 [y] snes_conv_reason:   11
  newton =   1 [     108] linear =   136 [     13633] cuts =  0 [   0]
  --> max chng: dpmx=   7.5933E-02 dtmpmx=   1.4601E-02

== TH FLOW =====================================================================
 Step    101 Time=  4.45000E+00 Dt=  5.00000E-02 [y] snes_conv_reason:   11
  newton =   1 [     109] linear =   135 [     13768] cuts =  0 [   0]
  --> max chng: dpmx=   6.1900E-02 dtmpmx=   1.2429E-02

== TH FLOW =====================================================================
 Step    102 Time=  4.50000E+00 Dt=  5.00000E-02 [y] snes_conv_reason:   11
  newton =   1 [     110] linear =   135 [     13903] cuts =  0 [   0]
  --> max chng: dpmx=   5.0059E-02 dtmpmx=   1.0483E-02

== TH FLOW =====================================================================
 Step    103 Time=  4.55000E+00 Dt=  5.00000E-02 [y] snes_conv_reason:   11
  newton =   1 [     111] linear =   137 [     14040] cuts =  0 [   0]
  --> max chng: dpmx=   4.0151E-02 dtmpmx=   8.7633E-03

== TH FLOW =====================================================================
 Step    104 Time=  4.60000E+00 Dt=  5.00000E-02 [y] snes_conv_reason:   11
  newton =   1 [     112] linear =   137 [     14177] cuts =  0 [   0]
  --> max chng: dpmx=   3.1944E-02 dtmpmx=   7.2608E-03

== TH FLOW =====================================================================
 Step    105 Time=  4.65000E+00 Dt=  5.00000E-02 [y] snes_conv_reason:   11
  newton =   1 [     113] linear =   137 [     14314] cuts =  0 [   0]
  --> max chng: dpmx=   2.5203E-02 dtmpmx=   5.9635E-03

== TH FLOW =====================================================================
 Step    106 Time=  4.70000E+00 Dt=  5.00000E-02 [y] snes_conv_reason:   11
  newton =   1 [     114] linear =   139 [     14453] cuts =  0 [   0]
  --> max chng: dpmx=   1.9721E-02 dtmpmx=   4.8556E-03

== TH FLOW =====================================================================
 Step    107 Time=  4.75000E+00 Dt=  5.00000E-02 [y] snes_conv_reason:   11
  newton =   1 [     115] linear =   142 [     14595] cuts =  0 [   0]
  --> max chng: dpmx=   1.5297E-02 dtmpmx=   3.9195E-03

== TH FLOW =====================================================================
 Step    108 Time=  4.80000E+00 Dt=  5.00000E-02 [y] snes_conv_reason:   11
  newton =   1 [     116] linear =   143 [     14738] cuts =  0 [   0]
  --> max chng: dpmx=   1.1758E-02 dtmpmx=   3.1366E-03

== TH FLOW =====================================================================
 Step    109 Time=  4.85000E+00 Dt=  5.00000E-02 [y] snes_conv_reason:   11
  newton =   1 [     117] linear =   141 [     14879] cuts =  0 [   0]
  --> max chng: dpmx=   8.9583E-03 dtmpmx=   2.4882E-03

== TH FLOW =====================================================================
 Step    110 Time=  4.90000E+00 Dt=  5.00000E-02 [y] snes_conv_reason:   11
  newton =   1 [     118] linear =   137 [     15016] cuts =  0 [   0]
  --> max chng: dpmx=   6.7554E-03 dtmpmx=   1.9565E-03

== TH FLOW =====================================================================
 Step    111 Time=  4.95000E+00 Dt=  5.00000E-02 [y] snes_conv_reason:   11
  newton =   1 [     119] linear =   132 [     15148] cuts =  0 [   0]
  --> max chng: dpmx=   5.0356E-03 dtmpmx=   1.5243E-03

== TH FLOW =====================================================================
 Step    112 Time=  5.00000E+00 Dt=  5.00000E-02 [y] snes_conv_reason:   11
  newton =   1 [     120] linear =   138 [     15286] cuts =  0 [   0]
  --> max chng: dpmx=   3.7110E-03 dtmpmx=   1.1762E-03

== TH FLOW =====================================================================
 Step    113 Time=  5.05000E+00 Dt=  5.00000E-02 [y] snes_conv_reason:   11
  newton =   1 [     121] linear =   136 [     15422] cuts =  0 [   0]
  --> max chng: dpmx=   2.6977E-03 dtmpmx=   8.9836E-04

== TH FLOW =====================================================================
 Step    114 Time=  5.10000E+00 Dt=  5.00000E-02 [y] snes_conv_reason:   11
  newton =   1 [     122] linear =   137 [     15559] cuts =  0 [   0]
  --> max chng: dpmx=   1.9309E-03 dtmpmx=   6.7842E-04

== TH FLOW =====================================================================
 Step    115 Time=  5.15000E+00 Dt=  5.00000E-02 [y] snes_conv_reason:   11
  newton =   1 [     123] linear =   133 [     15692] cuts =  0 [   0]
  --> max chng: dpmx=   1.3569E-03 dtmpmx=   5.0576E-04

== TH FLOW =====================================================================
 Step    116 Time=  5.20000E+00 Dt=  5.00000E-02 [y] snes_conv_reason:   11
  newton =   1 [     124] linear =   135 [     15827] cuts =  0 [   0]
  --> max chng: dpmx=   9.3258E-04 dtmpmx=   3.7131E-04

== TH FLOW =====================================================================
 Step    117 Time=  5.25000E+00 Dt=  5.00000E-02 [y] snes_conv_reason:   11
  newton =   1 [     125] linear =   141 [     15968] cuts =  0 [   0]
  --> max chng: dpmx=   9.9746E-04 dtmpmx=   2.6744E-04

== TH FLOW =====================================================================
 Step    118 Time=  5.30000E+00 Dt=  5.00000E-02 [y] snes_conv_reason:   11
  newton =   1 [     126] linear =   132 [     16100] cuts =  0 [   0]
  --> max chng: dpmx=   1.1133E-03 dtmpmx=   1.8781E-04

== TH FLOW =====================================================================
 Step    119 Time=  5.35000E+00 Dt=  5.00000E-02 [y] snes_conv_reason:   11
  newton =   1 [     127] linear =   129 [     16229] cuts =  0 [   0]
  --> max chng: dpmx=   1.1986E-03 dtmpmx=   1.2720E-04

== TH FLOW =====================================================================
 Step    120 Time=  5.40000E+00 Dt=  5.00000E-02 [y] snes_conv_reason:   11
  newton =   1 [     128] linear =   131 [     16360] cuts =  0 [   0]
  --> max chng: dpmx=   1.2585E-03 dtmpmx=   8.1411E-05

== TH FLOW =====================================================================
 Step    121 Time=  5.45000E+00 Dt=  5.00000E-02 [y] snes_conv_reason:   11
  newton =   1 [     129] linear =   125 [     16485] cuts =  0 [   0]
  --> max chng: dpmx=   1.2981E-03 dtmpmx=   4.9614E-05

== TH FLOW =====================================================================
 Step    122 Time=  5.50000E+00 Dt=  5.00000E-02 [y] snes_conv_reason:   11
  newton =   1 [     130] linear =   129 [     16614] cuts =  0 [   0]
  --> max chng: dpmx=   1.3222E-03 dtmpmx=   4.9453E-05

== TH FLOW =====================================================================
 Step    123 Time=  5.55000E+00 Dt=  5.00000E-02 [y] snes_conv_reason:   11
  newton =   1 [     131] linear =   125 [     16739] cuts =  0 [   0]
  --> max chng: dpmx=   1.3335E-03 dtmpmx=   4.9291E-05

== TH FLOW =====================================================================
 Step    124 Time=  5.60000E+00 Dt=  5.00000E-02 [y] snes_conv_reason:   11
  newton =   1 [     132] linear =   121 [     16860] cuts =  0 [   0]
  --> max chng: dpmx=   1.3348E-03 dtmpmx=   4.9126E-05

== TH FLOW =====================================================================
 Step    125 Time=  5.65000E+00 Dt=  5.00000E-02 [y] snes_conv_reason:   11
  newton =   1 [     133] linear =   122 [     16982] cuts =  0 [   0]
  --> max chng: dpmx=   1.3288E-03 dtmpmx=   4.8960E-05

== TH FLOW =====================================================================
 Step    126 Time=  5.70000E+00 Dt=  5.00000E-02 [y] snes_conv_reason:   11
  newton =   1 [     134] linear =   120 [     17102] cuts =  0 [   0]
  --> max chng: dpmx=   1.3165E-03 dtmpmx=   4.8790E-05

== TH FLOW =====================================================================
 Step    127 Time=  5.75000E+00 Dt=  5.00000E-02 [y] snes_conv_reason:   11
  newton =   1 [     135] linear =   117 [     17219] cuts =  0 [   0]
  --> max chng: dpmx=   1.2996E-03 dtmpmx=   4.8619E-05

== TH FLOW =====================================================================
 Step    128 Time=  5.80000E+00 Dt=  5.00000E-02 [y] snes_conv_reason:   11
  newton =   1 [     136] linear =   116 [     17335] cuts =  0 [   0]
  --> max chng: dpmx=   1.2783E-03 dtmpmx=   4.8443E-05

== TH FLOW =====================================================================
 Step    129 Time=  5.85000E+00 Dt=  5.00000E-02 [y] snes_conv_reason:   11
  newton =   1 [     137] linear =   108 [     17443] cuts =  0 [   0]
  --> max chng: dpmx=   1.2540E-03 dtmpmx=   4.8267E-05

== TH FLOW =====================================================================
 Step    130 Time=  5.90000E+00 Dt=  5.00000E-02 [y] snes_conv_reason:   11
  newton =   1 [     138] linear =   111 [     17554] cuts =  0 [   0]
  --> max chng: dpmx=   1.2270E-03 dtmpmx=   4.8086E-05

== TH FLOW =====================================================================
 Step    131 Time=  5.95000E+00 Dt=  5.00000E-02 [y] snes_conv_reason:   11
  newton =   1 [     139] linear =   113 [     17667] cuts =  0 [   0]
  --> max chng: dpmx=   1.1976E-03 dtmpmx=   4.7901E-05

== TH FLOW =====================================================================
 Step    132 Time=  6.00000E+00 Dt=  5.00000E-02 [y] snes_conv_reason:   11
  newton =   1 [     140] linear =   119 [     17786] cuts =  0 [   0]
  --> max chng: dpmx=   1.1660E-03 dtmpmx=   4.7715E-05

== TH FLOW =====================================================================
 Step    133 Time=  6.05000E+00 Dt=  5.00000E-02 [y] snes_conv_reason:   11
  newton =   1 [     141] linear =   111 [     17897] cuts =  0 [   0]
  --> max chng: dpmx=   1.1327E-03 dtmpmx=   4.7526E-05

== TH FLOW =====================================================================
 Step    134 Time=  6.10000E+00 Dt=  5.00000E-02 [y] snes_conv_reason:   11
  newton =   1 [     142] linear =   116 [     18013] cuts =  0 [   0]
  --> max chng: dpmx=   1.0980E-03 dtmpmx=   4.7332E-05

== TH FLOW =====================================================================
 Step    135 Time=  6.15000E+00 Dt=  5.00000E-02 [y] snes_conv_reason:   11
  newton =   1 [     143] linear =   115 [     18128] cuts =  0 [   0]
  --> max chng: dpmx=   1.0617E-03 dtmpmx=   4.7135E-05

== TH FLOW =====================================================================
 Step    136 Time=  6.20000E+00 Dt=  5.00000E-02 [y] snes_conv_reason:   11
  newton =   1 [     144] linear =   120 [     18248] cuts =  0 [   0]
  --> max chng: dpmx=   1.0244E-03 dtmpmx=   4.6934E-05

== TH FLOW =====================================================================
 Step    137 Time=  6.25000E+00 Dt=  5.00000E-02 [y] snes_conv_reason:   11
  newton =   1 [     145] linear =   109 [     18357] cuts =  0 [   0]
  --> max chng: dpmx=   9.8601E-04 dtmpmx=   4.6685E-05

== TH FLOW =====================================================================
 Step    138 Time=  6.30000E+00 Dt=  5.00000E-02 [y] snes_conv_reason:   11
  newton =   1 [     146] linear =   113 [     18470] cuts =  0 [   0]
  --> max chng: dpmx=   9.4649E-04 dtmpmx=   4.6308E-05

== TH FLOW =====================================================================
 Step    139 Time=  6.35000E+00 Dt=  5.00000E-02 [y] snes_conv_reason:   11
  newton =   1 [     147] linear =   118 [     18588] cuts =  0 [   0]
  --> max chng: dpmx=   9.0684E-04 dtmpmx=   4.5809E-05

== TH FLOW =====================================================================
 Step    140 Time=  6.40000E+00 Dt=  5.00000E-02 [y] snes_conv_reason:   11
  newton =   1 [     148] linear =   117 [     18705] cuts =  0 [   0]
  --> max chng: dpmx=   8.6647E-04 dtmpmx=   4.5194E-05

== TH FLOW =====================================================================
 Step    141 Time=  6.45000E+00 Dt=  5.00000E-02 [y] snes_conv_reason:   11
  newton =   1 [     149] linear =   122 [     18827] cuts =  0 [   0]
  --> max chng: dpmx=   8.2541E-04 dtmpmx=   4.4468E-05

== TH FLOW =====================================================================
 Step    142 Time=  6.50000E+00 Dt=  5.00000E-02 [y] snes_conv_reason:   11
  newton =   1 [     150] linear =   116 [     18943] cuts =  0 [   0]
  --> max chng: dpmx=   7.8448E-04 dtmpmx=   4.3634E-05

== TH FLOW =====================================================================
 Step    143 Time=  6.55000E+00 Dt=  5.00000E-02 [y] snes_conv_reason:   11
  newton =   1 [     151] linear =   121 [     19064] cuts =  0 [   0]
  --> max chng: dpmx=   7.4317E-04 dtmpmx=   4.2694E-05

== TH FLOW =====================================================================
 Step    144 Time=  6.60000E+00 Dt=  5.00000E-02 [y] snes_conv_reason:   11
  newton =   1 [     152] linear =   126 [     19190] cuts =  0 [   0]
  --> max chng: dpmx=   7.0267E-04 dtmpmx=   4.1654E-05

== TH FLOW =====================================================================
 Step    145 Time=  6.65000E+00 Dt=  5.00000E-02 [y] snes_conv_reason:   11
  newton =   1 [     153] linear =   125 [     19315] cuts =  0 [   0]
  --> max chng: dpmx=   6.6210E-04 dtmpmx=   4.0524E-05

== TH FLOW =====================================================================
 Step    146 Time=  6.70000E+00 Dt=  5.00000E-02 [y] snes_conv_reason:   11
  newton =   1 [     154] linear =   124 [     19439] cuts =  0 [   0]
  --> max chng: dpmx=   6.2202E-04 dtmpmx=   3.9333E-05

== TH FLOW =====================================================================
 Step    147 Time=  6.75000E+00 Dt=  5.00000E-02 [y] snes_conv_reason:   11
  newton =   1 [     155] linear =   124 [     19563] cuts =  0 [   0]
  --> max chng: dpmx=   5.8271E-04 dtmpmx=   3.8055E-05

== TH FLOW =====================================================================
 Step    148 Time=  6.80000E+00 Dt=  5.00000E-02 [y] snes_conv_reason:   11
  newton =   1 [     156] linear =   128 [     19691] cuts =  0 [   0]
  --> max chng: dpmx=   5.4418E-04 dtmpmx=   3.6700E-05

== TH FLOW =====================================================================
 Step    149 Time=  6.85000E+00 Dt=  5.00000E-02 [y] snes_conv_reason:   11
  newton =   1 [     157] linear =   123 [     19814] cuts =  0 [   0]
  --> max chng: dpmx=   5.0648E-04 dtmpmx=   3.5274E-05

== TH FLOW =====================================================================
 Step    150 Time=  6.90000E+00 Dt=  5.00000E-02 [y] snes_conv_reason:   11
  newton =   1 [     158] linear =   128 [     19942] cuts =  0 [   0]
  --> max chng: dpmx=   4.7001E-04 dtmpmx=   3.3788E-05

== TH FLOW =====================================================================
 Step    151 Time=  6.95000E+00 Dt=  5.00000E-02 [y] snes_conv_reason:   11
  newton =   1 [     159] linear =   129 [     20071] cuts =  0 [   0]
  --> max chng: dpmx=   4.3472E-04 dtmpmx=   3.2250E-05

== TH FLOW =====================================================================
 Step    152 Time=  7.00000E+00 Dt=  5.00000E-02 [y] snes_conv_reason:   11
  newton =   1 [     160] linear =   120 [     20191] cuts =  0 [   0]
  --> max chng: dpmx=   4.0073E-04 dtmpmx=   3.0671E-05

== TH FLOW =====================================================================
 Step    153 Time=  7.05000E+00 Dt=  5.00000E-02 [y] snes_conv_reason:   11
  newton =   1 [     161] linear =   127 [     20318] cuts =  0 [   0]
  --> max chng: dpmx=   3.6803E-04 dtmpmx=   2.9063E-05

== TH FLOW =====================================================================
 Step    154 Time=  7.10000E+00 Dt=  5.00000E-02 [y] snes_conv_reason:   11
  newton =   1 [     162] linear =   125 [     20443] cuts =  0 [   0]
  --> max chng: dpmx=   3.3711E-04 dtmpmx=   2.7436E-05

== TH FLOW =====================================================================
 Step    155 Time=  7.15000E+00 Dt=  5.00000E-02 [y] snes_conv_reason:   11
  newton =   1 [     163] linear =   124 [     20567] cuts =  0 [   0]
  --> max chng: dpmx=   3.0741E-04 dtmpmx=   2.5801E-05

== TH FLOW =====================================================================
 Step    156 Time=  7.20000E+00 Dt=  5.00000E-02 [y] snes_conv_reason:   11
  newton =   1 [     164] linear =   128 [     20695] cuts =  0 [   0]
  --> max chng: dpmx=   2.7954E-04 dtmpmx=   2.4170E-05

== TH FLOW =====================================================================
 Step    157 Time=  7.25000E+00 Dt=  5.00000E-02 [y] snes_conv_reason:   11
  newton =   1 [     165] linear =   131 [     20826] cuts =  0 [   0]
  --> max chng: dpmx=   2.5317E-04 dtmpmx=   2.2553E-05

== TH FLOW =====================================================================
 Step    158 Time=  7.30000E+00 Dt=  5.00000E-02 [y] snes_conv_reason:   11
  newton =   1 [     166] linear =   132 [     20958] cuts =  0 [   0]
  --> max chng: dpmx=   2.2850E-04 dtmpmx=   2.0960E-05

== TH FLOW =====================================================================
 Step    159 Time=  7.35000E+00 Dt=  5.00000E-02 [y] snes_conv_reason:   11
  newton =   1 [     167] linear =   130 [     21088] cuts =  0 [   0]
  --> max chng: dpmx=   2.0545E-04 dtmpmx=   1.9401E-05

== TH FLOW =====================================================================
 Step    160 Time=  7.40000E+00 Dt=  5.00000E-02 [y] snes_conv_reason:   11
  newton =   1 [     168] linear =   126 [     21214] cuts =  0 [   0]
  --> max chng: dpmx=   1.8407E-04 dtmpmx=   1.7885E-05

== TH FLOW =====================================================================
 Step    161 Time=  7.45000E+00 Dt=  5.00000E-02 [y] snes_conv_reason:   11
  newton =   1 [     169] linear =   130 [     21344] cuts =  0 [   0]
  --> max chng: dpmx=   1.6419E-04 dtmpmx=   1.6420E-05

== TH FLOW =====================================================================
 Step    162 Time=  7.50000E+00 Dt=  5.00000E-02 [y] snes_conv_reason:   11
  newton =   1 [     170] linear =   130 [     21474] cuts =  0 [   0]
  --> max chng: dpmx=   1.4599E-04 dtmpmx=   1.5011E-05

== TH FLOW =====================================================================
 Step    163 Time=  7.55000E+00 Dt=  5.00000E-02 [y] snes_conv_reason:   11
  newton =   1 [     171] linear =   131 [     21605] cuts =  0 [   0]
  --> max chng: dpmx=   1.2925E-04 dtmpmx=   1.3666E-05

== TH FLOW =====================================================================
 Step    164 Time=  7.60000E+00 Dt=  5.00000E-02 [y] snes_conv_reason:   11
  newton =   1 [     172] linear =   132 [     21737] cuts =  0 [   0]
  --> max chng: dpmx=   1.1400E-04 dtmpmx=   1.2389E-05

== TH FLOW =====================================================================
 Step    165 Time=  7.65000E+00 Dt=  5.00000E-02 [y] snes_conv_reason:   11
  newton =   1 [     173] linear =   133 [     21870] cuts =  0 [   0]
  --> max chng: dpmx=   1.0013E-04 dtmpmx=   1.1183E-05

== TH FLOW =====================================================================
 Step    166 Time=  7.70000E+00 Dt=  5.00000E-02 [y] snes_conv_reason:   11
  newton =   1 [     174] linear =   131 [     22001] cuts =  0 [   0]
  --> max chng: dpmx=   8.7579E-05 dtmpmx=   1.0051E-05

== TH FLOW =====================================================================
 Step    167 Time=  7.75000E+00 Dt=  5.00000E-02 [y] snes_conv_reason:   11
  newton =   1 [     175] linear =   134 [     22135] cuts =  0 [   0]
  --> max chng: dpmx=   7.6297E-05 dtmpmx=   8.9941E-06

== TH FLOW =====================================================================
 Step    168 Time=  7.80000E+00 Dt=  5.00000E-02 [y] snes_conv_reason:   11
  newton =   1 [     176] linear =   136 [     22271] cuts =  0 [   0]
  --> max chng: dpmx=   6.6181E-05 dtmpmx=   8.0129E-06

== TH FLOW =====================================================================
 Step    169 Time=  7.85000E+00 Dt=  5.00000E-02 [y] snes_conv_reason:   11
  newton =   1 [     177] linear =   136 [     22407] cuts =  0 [   0]
  --> max chng: dpmx=   5.7132E-05 dtmpmx=   7.1069E-06

== TH FLOW =====================================================================
 Step    170 Time=  7.90000E+00 Dt=  5.00000E-02 [y] snes_conv_reason:   11
  newton =   1 [     178] linear =   134 [     22541] cuts =  0 [   0]
  --> max chng: dpmx=   4.9106E-05 dtmpmx=   6.2750E-06

== TH FLOW =====================================================================
 Step    171 Time=  7.95000E+00 Dt=  5.00000E-02 [y] snes_conv_reason:   11
  newton =   1 [     179] linear =   134 [     22675] cuts =  0 [   0]
  --> max chng: dpmx=   4.2024E-05 dtmpmx=   5.5152E-06

== TH FLOW =====================================================================
 Step    172 Time=  8.00000E+00 Dt=  5.00000E-02 [y] snes_conv_reason:   11
  newton =   1 [     180] linear =   134 [     22809] cuts =  0 [   0]
  --> max chng: dpmx=   3.5775E-05 dtmpmx=   4.8249E-06

== TH FLOW =====================================================================
 Step    173 Time=  8.05000E+00 Dt=  5.00000E-02 [y] snes_conv_reason:   11
  newton =   1 [     181] linear =   136 [     22945] cuts =  0 [   0]
  --> max chng: dpmx=   3.0316E-05 dtmpmx=   4.2011E-06

== TH FLOW =====================================================================
 Step    174 Time=  8.10000E+00 Dt=  5.00000E-02 [y] snes_conv_reason:   11
  newton =   1 [     182] linear =   133 [     23078] cuts =  0 [   0]
  --> max chng: dpmx=   2.5546E-05 dtmpmx=   3.6403E-06

== TH FLOW =====================================================================
 Step    175 Time=  8.15000E+00 Dt=  5.00000E-02 [y] snes_conv_reason:   11
  newton =   1 [     183] linear =   133 [     23211] cuts =  0 [   0]
  --> max chng: dpmx=   2.1413E-05 dtmpmx=   3.1387E-06

== TH FLOW =====================================================================
 Step    176 Time=  8.20000E+00 Dt=  5.00000E-02 [y] snes_conv_reason:   11
  newton =   1 [     184] linear =   136 [     23347] cuts =  0 [   0]
  --> max chng: dpmx=   1.7840E-05 dtmpmx=   2.6924E-06

== TH FLOW =====================================================================
 Step    177 Time=  8.25000E+00 Dt=  5.00000E-02 [y] snes_conv_reason:   11
  newton =   1 [     185] linear =   134 [     23481] cuts =  0 [   0]
  --> max chng: dpmx=   1.4775E-05 dtmpmx=   2.2974E-06

== TH FLOW =====================================================================
 Step    178 Time=  8.30000E+00 Dt=  5.00000E-02 [y] snes_conv_reason:   11
  newton =   1 [     186] linear =   137 [     23618] cuts =  0 [   0]
  --> max chng: dpmx=   1.2152E-05 dtmpmx=   1.9495E-06

== TH FLOW =====================================================================
 Step    179 Time=  8.35000E+00 Dt=  5.00000E-02 [y] snes_conv_reason:   11
  newton =   1 [     187] linear =   138 [     23756] cuts =  0 [   0]
  --> max chng: dpmx=   9.9192E-06 dtmpmx=   1.6446E-06

== TH FLOW =====================================================================
 Step    180 Time=  8.40000E+00 Dt=  5.00000E-02 [y] snes_conv_reason:   11
  newton =   1 [     188] linear =   140 [     23896] cuts =  0 [   0]
  --> max chng: dpmx=   8.0366E-06 dtmpmx=   1.3788E-06

== TH FLOW =====================================================================
 Step    181 Time=  8.45000E+00 Dt=  5.00000E-02 [y] snes_conv_reason:   11
  newton =   1 [     189] linear =   139 [     24035] cuts =  0 [   0]
  --> max chng: dpmx=   6.4480E-06 dtmpmx=   1.1483E-06

== TH FLOW =====================================================================
 Step    182 Time=  8.50000E+00 Dt=  5.00000E-02 [y] snes_conv_reason:   11
  newton =   1 [     190] linear =   137 [     24172] cuts =  0 [   0]
  --> max chng: dpmx=   5.1208E-06 dtmpmx=   9.4931E-07

== TH FLOW =====================================================================
 Step    183 Time=  8.55000E+00 Dt=  5.00000E-02 [y] snes_conv_reason:   11
  newton =   1 [     191] linear =   135 [     24307] cuts =  0 [   0]
  --> max chng: dpmx=   4.0221E-06 dtmpmx=   7.7850E-07

== TH FLOW =====================================================================
 Step    184 Time=  8.60000E+00 Dt=  5.00000E-02 [y] snes_conv_reason:   11
  newton =   1 [     192] linear =   136 [     24443] cuts =  0 [   0]
  --> max chng: dpmx=   3.1169E-06 dtmpmx=   6.3265E-07

== TH FLOW =====================================================================
 Step    185 Time=  8.65000E+00 Dt=  5.00000E-02 [y] snes_conv_reason:   11
  newton =   1 [     193] linear =   134 [     24577] cuts =  0 [   0]
  --> max chng: dpmx=   2.3793E-06 dtmpmx=   5.0863E-07

== TH FLOW =====================================================================
 Step    186 Time=  8.70000E+00 Dt=  5.00000E-02 [y] snes_conv_reason:   11
  newton =   1 [     194] linear =   136 [     24713] cuts =  0 [   0]
  --> max chng: dpmx=   1.7823E-06 dtmpmx=   4.0389E-07

== TH FLOW =====================================================================
 Step    187 Time=  8.75000E+00 Dt=  5.00000E-02 [y] snes_conv_reason:   11
  newton =   1 [     195] linear =   135 [     24848] cuts =  0 [   0]
  --> max chng: dpmx=   1.3071E-06 dtmpmx=   3.1581E-07

== TH FLOW =====================================================================
 Step    188 Time=  8.80000E+00 Dt=  5.00000E-02 [y] snes_conv_reason:   11
  newton =   1 [     196] linear =   138 [     24986] cuts =  0 [   0]
  --> max chng: dpmx=   9.3330E-07 dtmpmx=   2.4219E-07

== TH FLOW =====================================================================
 Step    189 Time=  8.85000E+00 Dt=  5.00000E-02 [y] snes_conv_reason:   11
  newton =   1 [     197] linear =   136 [     25122] cuts =  0 [   0]
  --> max chng: dpmx=   9.7777E-07 dtmpmx=   1.8105E-07

== TH FLOW =====================================================================
 Step    190 Time=  8.90000E+00 Dt=  5.00000E-02 [y] snes_conv_reason:   11
  newton =   1 [     198] linear =   136 [     25258] cuts =  0 [   0]
  --> max chng: dpmx=   1.1027E-06 dtmpmx=   1.3060E-07

== TH FLOW =====================================================================
 Step    191 Time=  8.95000E+00 Dt=  5.00000E-02 [y] snes_conv_reason:   11
  newton =   1 [     199] linear =   132 [     25390] cuts =  0 [   0]
  --> max chng: dpmx=   1.1957E-06 dtmpmx=   8.9154E-08

== TH FLOW =====================================================================
 Step    192 Time=  9.00000E+00 Dt=  5.00000E-02 [y] snes_conv_reason:   11
  newton =   1 [     200] linear =   126 [     25516] cuts =  0 [   0]
  --> max chng: dpmx=   1.2603E-06 dtmpmx=   6.3245E-08

== TH FLOW =====================================================================
 Step    193 Time=  9.05000E+00 Dt=  5.00000E-02 [y] snes_conv_reason:   11
  newton =   1 [     201] linear =   127 [     25643] cuts =  0 [   0]
  --> max chng: dpmx=   1.3008E-06 dtmpmx=   6.2616E-08

== TH FLOW =====================================================================
 Step    194 Time=  9.10000E+00 Dt=  5.00000E-02 [y] snes_conv_reason:   11
  newton =   1 [     202] linear =   125 [     25768] cuts =  0 [   0]
  --> max chng: dpmx=   1.3203E-06 dtmpmx=   6.2027E-08

== TH FLOW =====================================================================
 Step    195 Time=  9.15000E+00 Dt=  5.00000E-02 [y] snes_conv_reason:   11
  newton =   1 [     203] linear =   118 [     25886] cuts =  0 [   0]
  --> max chng: dpmx=   1.3238E-06 dtmpmx=   6.1474E-08

== TH FLOW =====================================================================
 Step    196 Time=  9.20000E+00 Dt=  5.00000E-02 [y] snes_conv_reason:   11
  newton =   1 [     204] linear =   125 [     26011] cuts =  0 [   0]
  --> max chng: dpmx=   1.3120E-06 dtmpmx=   6.0880E-08

== TH FLOW =====================================================================
 Step    197 Time=  9.25000E+00 Dt=  5.00000E-02 [y] snes_conv_reason:   11
  newton =   1 [     205] linear =   130 [     26141] cuts =  0 [   0]
  --> max chng: dpmx=   1.2899E-06 dtmpmx=   6.0227E-08

== TH FLOW =====================================================================
 Step    198 Time=  9.30000E+00 Dt=  5.00000E-02 [y] snes_conv_reason:   11
  newton =   1 [     206] linear =   121 [     26262] cuts =  0 [   0]
  --> max chng: dpmx=   1.2589E-06 dtmpmx=   5.9663E-08

== TH FLOW =====================================================================
 Step    199 Time=  9.35000E+00 Dt=  5.00000E-02 [y] snes_conv_reason:   11
  newton =   1 [     207] linear =   123 [     26385] cuts =  0 [   0]
  --> max chng: dpmx=   1.2210E-06 dtmpmx=   5.9074E-08

== TH FLOW =====================================================================
 Step    200 Time=  9.40000E+00 Dt=  5.00000E-02 [y] snes_conv_reason:   11
  newton =   1 [     208] linear =   121 [     26506] cuts =  0 [   0]
  --> max chng: dpmx=   1.1779E-06 dtmpmx=   5.8514E-08

== TH FLOW =====================================================================
 Step    201 Time=  9.45000E+00 Dt=  5.00000E-02 [y] snes_conv_reason:   11
  newton =   1 [     209] linear =   117 [     26623] cuts =  0 [   0]
  --> max chng: dpmx=   1.1311E-06 dtmpmx=   5.7959E-08

== TH FLOW =====================================================================
 Step    202 Time=  9.50000E+00 Dt=  5.00000E-02 [y] snes_conv_reason:   11
  newton =   1 [     210] linear =   122 [     26745] cuts =  0 [   0]
  --> max chng: dpmx=   1.0815E-06 dtmpmx=   5.7370E-08

== TH FLOW =====================================================================
 Step    203 Time=  9.55000E+00 Dt=  5.00000E-02 [y] snes_conv_reason:   11
  newton =   1 [     211] linear =   122 [     26867] cuts =  0 [   0]
  --> max chng: dpmx=   1.0310E-06 dtmpmx=   5.6807E-08

== TH FLOW =====================================================================
 Step    204 Time=  9.60000E+00 Dt=  5.00000E-02 [y] snes_conv_reason:   11
  newton =   1 [     212] linear =   124 [     26991] cuts =  0 [   0]
  --> max chng: dpmx=   9.7870E-07 dtmpmx=   5.6230E-08

== TH FLOW =====================================================================
 Step    205 Time=  9.65000E+00 Dt=  5.00000E-02 [y] snes_conv_reason:   11
  newton =   1 [     213] linear =   125 [     27116] cuts =  0 [   0]
  --> max chng: dpmx=   9.2702E-07 dtmpmx=   5.5366E-08

== TH FLOW =====================================================================
 Step    206 Time=  9.70000E+00 Dt=  5.00000E-02 [y] snes_conv_reason:   11
  newton =   1 [     214] linear =   122 [     27238] cuts =  0 [   0]
  --> max chng: dpmx=   8.7509E-07 dtmpmx=   5.4095E-08

== TH FLOW =====================================================================
 Step    207 Time=  9.75000E+00 Dt=  5.00000E-02 [y] snes_conv_reason:   11
  newton =   1 [     215] linear =   121 [     27359] cuts =  0 [   0]
  --> max chng: dpmx=   8.2434E-07 dtmpmx=   5.2549E-08

== TH FLOW =====================================================================
 Step    208 Time=  9.80000E+00 Dt=  5.00000E-02 [y] snes_conv_reason:   11
  newton =   1 [     216] linear =   126 [     27485] cuts =  0 [   0]
  --> max chng: dpmx=   7.7370E-07 dtmpmx=   5.0771E-08

== TH FLOW =====================================================================
 Step    209 Time=  9.85000E+00 Dt=  5.00000E-02 [y] snes_conv_reason:   11
  newton =   1 [     217] linear =   125 [     27610] cuts =  0 [   0]
  --> max chng: dpmx=   7.2538E-07 dtmpmx=   4.8816E-08

== TH FLOW =====================================================================
 Step    210 Time=  9.90000E+00 Dt=  5.00000E-02 [y] snes_conv_reason:   11
  newton =   1 [     218] linear =   127 [     27737] cuts =  0 [   0]
  --> max chng: dpmx=   6.7789E-07 dtmpmx=   4.6790E-08

== TH FLOW =====================================================================
 Step    211 Time=  9.95000E+00 Dt=  5.00000E-02 [y] snes_conv_reason:   11
  newton =   1 [     219] linear =   127 [     27864] cuts =  0 [   0]
  --> max chng: dpmx=   6.3248E-07 dtmpmx=   4.4682E-08

== TH FLOW =====================================================================
 Step    212 Time=  1.00000E+01 Dt=  5.00000E-02 [y] snes_conv_reason:   11
  newton =   1 [     220] linear =   126 [     27990] cuts =  0 [   0]
  --> max chng: dpmx=   5.8860E-07 dtmpmx=   4.2576E-08

== TH FLOW =====================================================================
 Step    213 Time=  1.00500E+01 Dt=  5.00000E-02 [y] snes_conv_reason:   11
  newton =   1 [     221] linear =   125 [     28115] cuts =  0 [   0]
  --> max chng: dpmx=   5.4657E-07 dtmpmx=   4.0333E-08

== TH FLOW =====================================================================
 Step    214 Time=  1.01000E+01 Dt=  5.00000E-02 [y] snes_conv_reason:   11
  newton =   1 [     222] linear =   119 [     28234] cuts =  0 [   0]
  --> max chng: dpmx=   5.0652E-07 dtmpmx=   3.8159E-08

== TH FLOW =====================================================================
 Step    215 Time=  1.01500E+01 Dt=  5.00000E-02 [y] snes_conv_reason:   11
  newton =   1 [     223] linear =   125 [     28359] cuts =  0 [   0]
  --> max chng: dpmx=   4.6822E-07 dtmpmx=   3.6017E-08

== TH FLOW =====================================================================
 Step    216 Time=  1.02000E+01 Dt=  5.00000E-02 [y] snes_conv_reason:   11
  newton =   1 [     224] linear =   127 [     28486] cuts =  0 [   0]
  --> max chng: dpmx=   4.3190E-07 dtmpmx=   3.3813E-08

== TH FLOW =====================================================================
 Step    217 Time=  1.02500E+01 Dt=  5.00000E-02 [y] snes_conv_reason:   11
  newton =   1 [     225] linear =   124 [     28610] cuts =  0 [   0]
  --> max chng: dpmx=   3.9767E-07 dtmpmx=   3.1795E-08

== TH FLOW =====================================================================
 Step    218 Time=  1.03000E+01 Dt=  5.00000E-02 [y] snes_conv_reason:   11
  newton =   1 [     226] linear =   129 [     28739] cuts =  0 [   0]
  --> max chng: dpmx=   3.6531E-07 dtmpmx=   2.9716E-08

== TH FLOW =====================================================================
 Step    219 Time=  1.03500E+01 Dt=  5.00000E-02 [y] snes_conv_reason:   11
  newton =   1 [     227] linear =   128 [     28867] cuts =  0 [   0]
  --> max chng: dpmx=   3.3481E-07 dtmpmx=   2.7752E-08

== TH FLOW =====================================================================
 Step    220 Time=  1.04000E+01 Dt=  5.00000E-02 [y] snes_conv_reason:   11
  newton =   1 [     228] linear =   129 [     28996] cuts =  0 [   0]
  --> max chng: dpmx=   3.0617E-07 dtmpmx=   2.5847E-08

== TH FLOW =====================================================================
 Step    221 Time=  1.04500E+01 Dt=  5.00000E-02 [y] snes_conv_reason:   11
  newton =   1 [     229] linear =   129 [     29125] cuts =  0 [   0]
  --> max chng: dpmx=   2.7928E-07 dtmpmx=   2.4060E-08

== TH FLOW =====================================================================
 Step    222 Time=  1.05000E+01 Dt=  5.00000E-02 [y] snes_conv_reason:   11
  newton =   1 [     230] linear =   129 [     29254] cuts =  0 [   0]
  --> max chng: dpmx=   2.5437E-07 dtmpmx=   2.2283E-08

== TH FLOW =====================================================================
 Step    223 Time=  1.05500E+01 Dt=  5.00000E-02 [y] snes_conv_reason:   11
  newton =   1 [     231] linear =   124 [     29378] cuts =  0 [   0]
  --> max chng: dpmx=   2.3108E-07 dtmpmx=   2.0637E-08

== TH FLOW =====================================================================
 Step    224 Time=  1.06000E+01 Dt=  5.00000E-02 [y] snes_conv_reason:   11
  newton =   1 [     232] linear =   130 [     29508] cuts =  0 [   0]
  --> max chng: dpmx=   2.0931E-07 dtmpmx=   1.9010E-08

== TH FLOW =====================================================================
 Step    225 Time=  1.06500E+01 Dt=  5.00000E-02 [y] snes_conv_reason:   11
  newton =   1 [     233] linear =   131 [     29639] cuts =  0 [   0]
  --> max chng: dpmx=   1.8917E-07 dtmpmx=   1.7500E-08

== TH FLOW =====================================================================
 Step    226 Time=  1.07000E+01 Dt=  5.00000E-02 [y] snes_conv_reason:   11
  newton =   1 [     234] linear =   127 [     29766] cuts =  0 [   0]
  --> max chng: dpmx=   1.7066E-07 dtmpmx=   1.6115E-08

== TH FLOW =====================================================================
 Step    227 Time=  1.07500E+01 Dt=  5.00000E-02 [y] snes_conv_reason:   11
  newton =   1 [     235] linear =   131 [     29897] cuts =  0 [   0]
  --> max chng: dpmx=   1.5344E-07 dtmpmx=   1.4709E-08

== TH FLOW =====================================================================
 Step    228 Time=  1.08000E+01 Dt=  5.00000E-02 [y] snes_conv_reason:   11
  newton =   1 [     236] linear =   131 [     30028] cuts =  0 [   0]
  --> max chng: dpmx=   1.3772E-07 dtmpmx=   1.3494E-08

== TH FLOW =====================================================================
 Step    229 Time=  1.08500E+01 Dt=  5.00000E-02 [y] snes_conv_reason:   11
  newton =   1 [     237] linear =   130 [     30158] cuts =  0 [   0]
  --> max chng: dpmx=   1.2328E-07 dtmpmx=   1.2261E-08

== TH FLOW =====================================================================
 Step    230 Time=  1.09000E+01 Dt=  5.00000E-02 [y] snes_conv_reason:   11
  newton =   1 [     238] linear =   132 [     30290] cuts =  0 [   0]
  --> max chng: dpmx=   1.1001E-07 dtmpmx=   1.1151E-08

== TH FLOW =====================================================================
 Step    231 Time=  1.09500E+01 Dt=  5.00000E-02 [y] snes_conv_reason:   11
  newton =   1 [     239] linear =   129 [     30419] cuts =  0 [   0]
  --> max chng: dpmx=   9.7905E-08 dtmpmx=   1.0120E-08

== TH FLOW =====================================================================
 Step    232 Time=  1.10000E+01 Dt=  5.00000E-02 [y] snes_conv_reason:   11
  newton =   1 [     240] linear =   131 [     30550] cuts =  0 [   0]
  --> max chng: dpmx=   8.6962E-08 dtmpmx=   9.1618E-09

== TH FLOW =====================================================================
 Step    233 Time=  1.10500E+01 Dt=  5.00000E-02 [y] snes_conv_reason:   11
  newton =   1 [     241] linear =   130 [     30680] cuts =  0 [   0]
  --> max chng: dpmx=   7.6951E-08 dtmpmx=   8.2977E-09

== TH FLOW =====================================================================
 Step    234 Time=  1.11000E+01 Dt=  5.00000E-02 [y] snes_conv_reason:   11
  newton =   1 [     242] linear =   132 [     30812] cuts =  0 [   0]
  --> max chng: dpmx=   6.7870E-08 dtmpmx=   7.4177E-09

== TH FLOW =====================================================================
 Step    235 Time=  1.11500E+01 Dt=  5.00000E-02 [y] snes_conv_reason:   11
  newton =   1 [     243] linear =   132 [     30944] cuts =  0 [   0]
  --> max chng: dpmx=   5.9721E-08 dtmpmx=   6.6563E-09

== TH FLOW =====================================================================
 Step    236 Time=  1.12000E+01 Dt=  5.00000E-02 [y] snes_conv_reason:   11
  newton =   1 [     244] linear =   127 [     31071] cuts =  0 [   0]
  --> max chng: dpmx=   5.2503E-08 dtmpmx=   5.9488E-09

== TH FLOW =====================================================================
 Step    237 Time=  1.12500E+01 Dt=  5.00000E-02 [y] snes_conv_reason:   11
  newton =   1 [     245] linear =   133 [     31204] cuts =  0 [   0]
  --> max chng: dpmx=   4.5868E-08 dtmpmx=   5.2821E-09

== TH FLOW =====================================================================
 Step    238 Time=  1.13000E+01 Dt=  5.00000E-02 [y] snes_conv_reason:   11
  newton =   1 [     246] linear =   131 [     31335] cuts =  0 [   0]
  --> max chng: dpmx=   3.9930E-08 dtmpmx=   4.7906E-09

== TH FLOW =====================================================================
 Step    239 Time=  1.13500E+01 Dt=  5.00000E-02 [y] snes_conv_reason:   11
  newton =   1 [     247] linear =   136 [     31471] cuts =  0 [   0]
  --> max chng: dpmx=   3.4692E-08 dtmpmx=   4.1533E-09

== TH FLOW =====================================================================
 Step    240 Time=  1.14000E+01 Dt=  5.00000E-02 [y] snes_conv_reason:   11
  newton =   1 [     248] linear =   135 [     31606] cuts =  0 [   0]
  --> max chng: dpmx=   3.0035E-08 dtmpmx=   3.7333E-09

== TH FLOW =====================================================================
 Step    241 Time=  1.14500E+01 Dt=  5.00000E-02 [y] snes_conv_reason:   11
  newton =   1 [     249] linear =   133 [     31739] cuts =  0 [   0]
  --> max chng: dpmx=   2.5844E-08 dtmpmx=   3.2774E-09

== TH FLOW =====================================================================
 Step    242 Time=  1.15000E+01 Dt=  5.00000E-02 [y] snes_conv_reason:   11
  newton =   1 [     250] linear =   134 [     31873] cuts =  0 [   0]
  --> max chng: dpmx=   2.2235E-08 dtmpmx=   2.8338E-09

== TH FLOW =====================================================================
 Step    243 Time=  1.15500E+01 Dt=  5.00000E-02 [y] snes_conv_reason:   11
  newton =   1 [     251] linear =   133 [     32006] cuts =  0 [   0]
  --> max chng: dpmx=   1.8976E-08 dtmpmx=   2.5208E-09

== TH FLOW =====================================================================
 Step    244 Time=  1.16000E+01 Dt=  5.00000E-02 [y] snes_conv_reason:   11
  newton =   1 [     252] linear =   136 [     32142] cuts =  0 [   0]
  --> max chng: dpmx=   1.6182E-08 dtmpmx=   2.1688E-09

== TH FLOW =====================================================================
 Step    245 Time=  1.16500E+01 Dt=  5.00000E-02 [y] snes_conv_reason:   11
  newton =   1 [     253] linear =   136 [     32278] cuts =  0 [   0]
  --> max chng: dpmx=   1.3737E-08 dtmpmx=   1.9139E-09

== TH FLOW =====================================================================
 Step    246 Time=  1.17000E+01 Dt=  5.00000E-02 [y] snes_conv_reason:   11
  newton =   1 [     254] linear =   136 [     32414] cuts =  0 [   0]
  --> max chng: dpmx=   1.1525E-08 dtmpmx=   1.6083E-09

== TH FLOW =====================================================================
 Step    247 Time=  1.17500E+01 Dt=  5.00000E-02 [y] snes_conv_reason:   11
  newton =   1 [     255] linear =   137 [     32551] cuts =  0 [   0]
  --> max chng: dpmx=   9.6625E-09 dtmpmx=   1.4258E-09

== TH FLOW =====================================================================
 Step    248 Time=  1.18000E+01 Dt=  5.00000E-02 [y] snes_conv_reason:   11
  newton =   1 [     256] linear =   148 [     32699] cuts =  0 [   0]
  --> max chng: dpmx=   8.0327E-09 dtmpmx=   1.2038E-09

== TH FLOW =====================================================================
 Step    249 Time=  1.18500E+01 Dt=  5.00000E-02 [y] snes_conv_reason:   11
  newton =   1 [     257] linear =   139 [     32838] cuts =  0 [   0]
  --> max chng: dpmx=   6.6357E-09 dtmpmx=   1.0310E-09

== TH FLOW =====================================================================
 Step    250 Time=  1.19000E+01 Dt=  5.00000E-02 [y] snes_conv_reason:   11
  newton =   1 [     258] linear =   136 [     32974] cuts =  0 [   0]
  --> max chng: dpmx=   5.4715E-09 dtmpmx=   8.6679E-10

== TH FLOW =====================================================================
 Step    251 Time=  1.19500E+01 Dt=  5.00000E-02 [y] snes_conv_reason:   11
  newton =   1 [     259] linear =   135 [     33109] cuts =  0 [   0]
  --> max chng: dpmx=   4.4238E-09 dtmpmx=   7.5481E-10

== TH FLOW =====================================================================
 Step    252 Time=  1.20000E+01 Dt=  5.00000E-02 [y] snes_conv_reason:   11
  newton =   1 [     260] linear =   140 [     33249] cuts =  0 [   0]
  --> max chng: dpmx=   3.6089E-09 dtmpmx=   6.2829E-10

== TH FLOW =====================================================================
 Step    253 Time=  1.20500E+01 Dt=  5.00000E-02 [y] snes_conv_reason:   11
  newton =   1 [     261] linear =   137 [     33386] cuts =  0 [   0]
  --> max chng: dpmx=   2.9104E-09 dtmpmx=   4.8670E-10

== TH FLOW =====================================================================
 Step    254 Time=  1.21000E+01 Dt=  5.00000E-02 [y] snes_conv_reason:   11
  newton =   1 [     262] linear =   137 [     33523] cuts =  0 [   0]
  --> max chng: dpmx=   2.2119E-09 dtmpmx=   4.1423E-10

== TH FLOW =====================================================================
 Step    255 Time=  1.21500E+01 Dt=  5.00000E-02 [y] snes_conv_reason:   11
  newton =   1 [     263] linear =   137 [     33660] cuts =  0 [   0]
  --> max chng: dpmx=   1.7462E-09 dtmpmx=   3.4411E-10

== TH FLOW =====================================================================
 Step    256 Time=  1.22000E+01 Dt=  5.00000E-02 [y] snes_conv_reason:   11
  newton =   1 [     264] linear =   134 [     33794] cuts =  0 [   0]
  --> max chng: dpmx=   1.2806E-09 dtmpmx=   2.9889E-10

== TH FLOW =====================================================================
 Step    257 Time=  1.22500E+01 Dt=  5.00000E-02 [y] snes_conv_reason:   11
  newton =   1 [     265] linear =   134 [     33928] cuts =  0 [   0]
  --> max chng: dpmx=   1.0477E-09 dtmpmx=   2.5772E-10

[...]
 Step    493 Time=  2.40500E+01 Dt=  5.00000E-02 [y] snes_conv_reason:   11
  newton =   1 [     501] linear =    79 [     57819] cuts =  0 [   0]
  --> max chng: dpmx=   1.1642E-10 dtmpmx=   8.7342E-11

== TH FLOW =====================================================================
 Step    494 Time=  2.41000E+01 Dt=  5.00000E-02 [y] snes_conv_reason:   11
  newton =   1 [     502] linear =   116 [     57935] cuts =  0 [   0]
  --> max chng: dpmx=   1.1642E-10 dtmpmx=   8.2164E-11

== TH FLOW =====================================================================
 Step    495 Time=  2.41500E+01 Dt=  5.00000E-02 [y] snes_conv_reason:   11
  newton =   1 [     503] linear =    94 [     58029] cuts =  0 [   0]
  --> max chng: dpmx=   1.1642E-10 dtmpmx=   7.6549E-11

== TH FLOW =====================================================================
 Step    496 Time=  2.42000E+01 Dt=  5.00000E-02 [y] snes_conv_reason:   11
  newton =   1 [     504] linear =    82 [     58111] cuts =  0 [   0]
  --> max chng: dpmx=   1.1642E-10 dtmpmx=   8.1723E-11

== TH FLOW =====================================================================
 Step    497 Time=  2.42500E+01 Dt=  5.00000E-02 [y] snes_conv_reason:   11
  newton =   1 [     505] linear =   102 [     58213] cuts =  0 [   0]
  --> max chng: dpmx=   1.1642E-10 dtmpmx=   8.5020E-11

== TH FLOW =====================================================================
 Step    498 Time=  2.43000E+01 Dt=  5.00000E-02 [y] snes_conv_reason:   11
  newton =   1 [     506] linear =   120 [     58333] cuts =  0 [   0]
  --> max chng: dpmx=   1.1642E-10 dtmpmx=   7.7330E-11

== TH FLOW =====================================================================
 Step    499 Time=  2.43500E+01 Dt=  5.00000E-02 [y] snes_conv_reason:   11
  newton =   1 [     507] linear =   109 [     58442] cuts =  0 [   0]
  --> max chng: dpmx=   2.3283E-10 dtmpmx=   8.0901E-11

== TH FLOW =====================================================================
 Step    500 Time=  2.44000E+01 Dt=  5.00000E-02 [y] snes_conv_reason:   11
  newton =   1 [     508] linear =    77 [     58519] cuts =  0 [   0]
  --> max chng: dpmx=   1.1642E-10 dtmpmx=   8.6846E-11

== TH FLOW =====================================================================
 Step    501 Time=  2.44500E+01 Dt=  5.00000E-02 [y] snes_conv_reason:   11
  newton =   1 [     509] linear =    88 [     58607] cuts =  0 [   0]
  --> max chng: dpmx=   1.1642E-10 dtmpmx=   7.6131E-11

== TH FLOW =====================================================================
 Step    502 Time=  2.45000E+01 Dt=  5.00000E-02 [y] snes_conv_reason:   11
  newton =   1 [     510] linear =   120 [     58727] cuts =  0 [   0]
  --> max chng: dpmx=   1.1642E-10 dtmpmx=   7.9458E-11

== TH FLOW =====================================================================
 Step    503 Time=  2.45500E+01 Dt=  5.00000E-02 [y] snes_conv_reason:   11
  newton =   1 [     511] linear =   126 [     58853] cuts =  0 [   0]
  --> max chng: dpmx=   2.3283E-10 dtmpmx=   8.6519E-11

== TH FLOW =====================================================================
 Step    504 Time=  2.46000E+01 Dt=  5.00000E-02 [y] snes_conv_reason:   11
  newton =   1 [     512] linear =   107 [     58960] cuts =  0 [   0]
  --> max chng: dpmx=   1.1642E-10 dtmpmx=   8.9644E-11

== TH FLOW =====================================================================
 Step    505 Time=  2.46500E+01 Dt=  5.00000E-02 [y] snes_conv_reason:   11
  newton =   1 [     513] linear =    81 [     59041] cuts =  0 [   0]
  --> max chng: dpmx=   1.1642E-10 dtmpmx=   8.6054E-11

== TH FLOW =====================================================================
 Step    506 Time=  2.47000E+01 Dt=  5.00000E-02 [y] snes_conv_reason:   11
  newton =   1 [     514] linear =   118 [     59159] cuts =  0 [   0]
  --> max chng: dpmx=   1.1642E-10 dtmpmx=   8.3228E-11

== TH FLOW =====================================================================
 Step    507 Time=  2.47500E+01 Dt=  5.00000E-02 [y] snes_conv_reason:   11
  newton =   1 [     515] linear =    64 [     59223] cuts =  0 [   0]
  --> max chng: dpmx=   1.1642E-10 dtmpmx=   8.8978E-11

== TH FLOW =====================================================================
 Step    508 Time=  2.48000E+01 Dt=  5.00000E-02 [y] snes_conv_reason:   11
  newton =   1 [     516] linear =   119 [     59342] cuts =  0 [   0]
  --> max chng: dpmx=   1.1642E-10 dtmpmx=   8.4791E-11

== TH FLOW =====================================================================
 Step    509 Time=  2.48500E+01 Dt=  5.00000E-02 [y] snes_conv_reason:   11
  newton =   1 [     517] linear =   110 [     59452] cuts =  0 [   0]
  --> max chng: dpmx=   2.3283E-10 dtmpmx=   8.3915E-11

== TH FLOW =====================================================================
 Step    510 Time=  2.49000E+01 Dt=  5.00000E-02 [y] snes_conv_reason:   11
  newton =   1 [     518] linear =    67 [     59519] cuts =  0 [   0]
  --> max chng: dpmx=   1.1642E-10 dtmpmx=   8.8630E-11

== TH FLOW =====================================================================
 Step    511 Time=  2.49500E+01 Dt=  5.00000E-02 [y] snes_conv_reason:   11
  newton =   1 [     519] linear =   108 [     59627] cuts =  0 [   0]
  --> max chng: dpmx=   1.1642E-10 dtmpmx=   8.9287E-11

== TH FLOW =====================================================================
 Step    512 Time=  2.50000E+01 Dt=  5.00000E-02 [y] snes_conv_reason:   11
  newton =   1 [     520] linear =    85 [     59712] cuts =  0 [   0]
  --> max chng: dpmx=   1.1642E-10 dtmpmx=   8.5286E-11

== TH FLOW =====================================================================
 Step    513 Time=  2.50500E+01 Dt=  5.00000E-02 [y] snes_conv_reason:   11
  newton =   1 [     521] linear =   119 [     59831] cuts =  0 [   0]
  --> max chng: dpmx=   1.1642E-10 dtmpmx=   7.9016E-11

== TH FLOW =====================================================================
 Step    514 Time=  2.51000E+01 Dt=  5.00000E-02 [y] snes_conv_reason:   11
  newton =   1 [     522] linear =   108 [     59939] cuts =  0 [   0]
  --> max chng: dpmx=   1.1642E-10 dtmpmx=   8.5519E-11

== TH FLOW =====================================================================
 Step    515 Time=  2.51500E+01 Dt=  5.00000E-02 [y] snes_conv_reason:   11
  newton =   1 [     523] linear =    96 [     60035] cuts =  0 [   0]
  --> max chng: dpmx=   1.1642E-10 dtmpmx=   8.2578E-11

== TH FLOW =====================================================================
 Step    516 Time=  2.52000E+01 Dt=  5.00000E-02 [y] snes_conv_reason:   11
  newton =   1 [     524] linear =   107 [     60142] cuts =  0 [   0]
  --> max chng: dpmx=   1.1642E-10 dtmpmx=   9.4177E-11

== TH FLOW =====================================================================
 Step    517 Time=  2.52500E+01 Dt=  5.00000E-02 [y] snes_conv_reason:   11
  newton =   1 [     525] linear =    65 [     60207] cuts =  0 [   0]
  --> max chng: dpmx=   1.1642E-10 dtmpmx=   9.1234E-11

== TH FLOW =====================================================================
 Step    518 Time=  2.53000E+01 Dt=  5.00000E-02 [y] snes_conv_reason:   11
  newton =   1 [     526] linear =   102 [     60309] cuts =  0 [   0]
  --> max chng: dpmx=   1.1642E-10 dtmpmx=   9.2436E-11

== TH FLOW =====================================================================
 Step    519 Time=  2.53500E+01 Dt=  5.00000E-02 [y] snes_conv_reason:   11
  newton =   1 [     527] linear =   114 [     60423] cuts =  0 [   0]
  --> max chng: dpmx=   2.3283E-10 dtmpmx=   8.7770E-11

== TH FLOW =====================================================================
 Step    520 Time=  2.54000E+01 Dt=  5.00000E-02 [y] snes_conv_reason:   11
  newton =   1 [     528] linear =   117 [     60540] cuts =  0 [   0]
  --> max chng: dpmx=   1.1642E-10 dtmpmx=   9.0463E-11

== TH FLOW =====================================================================
 Step    521 Time=  2.54500E+01 Dt=  5.00000E-02 [y] snes_conv_reason:   11
  newton =   1 [     529] linear =   105 [     60645] cuts =  0 [   0]
  --> max chng: dpmx=   2.3283E-10 dtmpmx=   9.8813E-11

== TH FLOW =====================================================================
 Step    522 Time=  2.55000E+01 Dt=  5.00000E-02 [y] snes_conv_reason:   11
  newton =   1 [     530] linear =    96 [     60741] cuts =  0 [   0]
  --> max chng: dpmx=   2.3283E-10 dtmpmx=   9.6943E-11

== TH FLOW =====================================================================
 Step    523 Time=  2.55500E+01 Dt=  5.00000E-02 [y] snes_conv_reason:   11
  newton =   1 [     531] linear =   135 [     60876] cuts =  0 [   0]
  --> max chng: dpmx=   1.1642E-10 dtmpmx=   8.5617E-11

== TH FLOW =====================================================================
 Step    524 Time=  2.56000E+01 Dt=  5.00000E-02 [y] snes_conv_reason:   11
  newton =   1 [     532] linear =    89 [     60965] cuts =  0 [   0]
  --> max chng: dpmx=   1.1642E-10 dtmpmx=   9.6970E-11

== TH FLOW =====================================================================
 Step    525 Time=  2.56500E+01 Dt=  5.00000E-02 [y] snes_conv_reason:   11
  newton =   1 [     533] linear =    91 [     61056] cuts =  0 [   0]
  --> max chng: dpmx=   1.1642E-10 dtmpmx=   9.2120E-11

== TH FLOW =====================================================================
 Step    526 Time=  2.57000E+01 Dt=  5.00000E-02 [y] snes_conv_reason:   11
  newton =   1 [     534] linear =    68 [     61124] cuts =  0 [   0]
  --> max chng: dpmx=   1.1642E-10 dtmpmx=   8.6784E-11

== TH FLOW =====================================================================
 Step    527 Time=  2.57500E+01 Dt=  5.00000E-02 [y] snes_conv_reason:   11
  newton =   1 [     535] linear =   108 [     61232] cuts =  0 [   0]
  --> max chng: dpmx=   2.3283E-10 dtmpmx=   9.5222E-11

== TH FLOW =====================================================================
 Step    528 Time=  2.58000E+01 Dt=  5.00000E-02 [y] snes_conv_reason:   11
  newton =   1 [     536] linear =    44 [     61276] cuts =  0 [   0]
  --> max chng: dpmx=   1.1642E-10 dtmpmx=   9.2022E-11

== TH FLOW =====================================================================
 Step    529 Time=  2.58500E+01 Dt=  5.00000E-02 [y] snes_conv_reason:   11
  newton =   1 [     537] linear =   109 [     61385] cuts =  0 [   0]
  --> max chng: dpmx=   1.1642E-10 dtmpmx=   8.2922E-11

== TH FLOW =====================================================================
 Step    530 Time=  2.59000E+01 Dt=  5.00000E-02 [y] snes_conv_reason:   11
  newton =   1 [     538] linear =   112 [     61497] cuts =  0 [   0]
  --> max chng: dpmx=   1.1642E-10 dtmpmx=   9.5699E-11

== TH FLOW =====================================================================
 Step    531 Time=  2.59500E+01 Dt=  5.00000E-02 [y] snes_conv_reason:   11
  newton =   1 [     539] linear =   132 [     61629] cuts =  0 [   0]
  --> max chng: dpmx=   1.1642E-10 dtmpmx=   8.3938E-11

== TH FLOW =====================================================================
 Step    532 Time=  2.60000E+01 Dt=  5.00000E-02 [y] snes_conv_reason:   11
  newton =   1 [     540] linear =   113 [     61742] cuts =  0 [   0]
  --> max chng: dpmx=   1.1642E-10 dtmpmx=   8.1609E-11

== TH FLOW =====================================================================
 Step    533 Time=  2.60500E+01 Dt=  5.00000E-02 [y] snes_conv_reason:   11
  newton =   1 [     541] linear =    94 [     61836] cuts =  0 [   0]
  --> max chng: dpmx=   1.1642E-10 dtmpmx=   8.8974E-11

== TH FLOW =====================================================================
 Step    534 Time=  2.61000E+01 Dt=  5.00000E-02 [y] snes_conv_reason:   11
  newton =   1 [     542] linear =    88 [     61924] cuts =  0 [   0]
  --> max chng: dpmx=   2.3283E-10 dtmpmx=   8.1593E-11

== TH FLOW =====================================================================
 Step    535 Time=  2.61500E+01 Dt=  5.00000E-02 [y] snes_conv_reason:   11
  newton =   1 [     543] linear =   116 [     62040] cuts =  0 [   0]
  --> max chng: dpmx=   1.1642E-10 dtmpmx=   8.5418E-11

== TH FLOW =====================================================================
 Step    536 Time=  2.62000E+01 Dt=  5.00000E-02 [y] snes_conv_reason:   11
  newton =   1 [     544] linear =   113 [     62153] cuts =  0 [   0]
  --> max chng: dpmx=   1.1642E-10 dtmpmx=   8.1002E-11

== TH FLOW =====================================================================
 Step    537 Time=  2.62500E+01 Dt=  5.00000E-02 [y] snes_conv_reason:   11
  newton =   1 [     545] linear =    68 [     62221] cuts =  0 [   0]
  --> max chng: dpmx=   1.1642E-10 dtmpmx=   8.4645E-11

== TH FLOW =====================================================================
 Step    538 Time=  2.63000E+01 Dt=  5.00000E-02 [y] snes_conv_reason:   11
  newton =   1 [     546] linear =   104 [     62325] cuts =  0 [   0]
  --> max chng: dpmx=   1.1642E-10 dtmpmx=   7.9437E-11

== TH FLOW =====================================================================
 Step    539 Time=  2.63500E+01 Dt=  5.00000E-02 [y] snes_conv_reason:   11
  newton =   1 [     547] linear =    91 [     62416] cuts =  0 [   0]
  --> max chng: dpmx=   2.3283E-10 dtmpmx=   8.9143E-11

== TH FLOW =====================================================================
 Step    540 Time=  2.64000E+01 Dt=  5.00000E-02 [y] snes_conv_reason:   11
  newton =   1 [     548] linear =    60 [     62476] cuts =  0 [   0]
  --> max chng: dpmx=   1.1642E-10 dtmpmx=   9.7232E-11

== TH FLOW =====================================================================
 Step    541 Time=  2.64500E+01 Dt=  5.00000E-02 [y] snes_conv_reason:   11
  newton =   1 [     549] linear =    78 [     62554] cuts =  0 [   0]
  --> max chng: dpmx=   2.3283E-10 dtmpmx=   8.6843E-11

== TH FLOW =====================================================================
 Step    542 Time=  2.65000E+01 Dt=  5.00000E-02 [y] snes_conv_reason:   11
  newton =   1 [     550] linear =    81 [     62635] cuts =  0 [   0]
  --> max chng: dpmx=   1.1642E-10 dtmpmx=   8.9932E-11

== TH FLOW =====================================================================
 Step    543 Time=  2.65500E+01 Dt=  5.00000E-02 [y] snes_conv_reason:   11
  newton =   1 [     551] linear =   103 [     62738] cuts =  0 [   0]
  --> max chng: dpmx=   1.1642E-10 dtmpmx=   8.7784E-11

== TH FLOW =====================================================================
 Step    544 Time=  2.66000E+01 Dt=  5.00000E-02 [y] snes_conv_reason:   11
  newton =   1 [     552] linear =   113 [     62851] cuts =  0 [   0]
  --> max chng: dpmx=   2.3283E-10 dtmpmx=   8.8994E-11

== TH FLOW =====================================================================
 Step    545 Time=  2.66500E+01 Dt=  5.00000E-02 [y] snes_conv_reason:   11
  newton =   1 [     553] linear =    75 [     62926] cuts =  0 [   0]
  --> max chng: dpmx=   1.1642E-10 dtmpmx=   8.2522E-11

== TH FLOW =====================================================================
 Step    546 Time=  2.67000E+01 Dt=  5.00000E-02 [y] snes_conv_reason:   11
  newton =   1 [     554] linear =   114 [     63040] cuts =  0 [   0]
  --> max chng: dpmx=   1.1642E-10 dtmpmx=   9.5161E-11

== TH FLOW =====================================================================
 Step    547 Time=  2.67500E+01 Dt=  5.00000E-02 [y] snes_conv_reason:   11
  newton =   1 [     555] linear =    59 [     63099] cuts =  0 [   0]
  --> max chng: dpmx=   1.1642E-10 dtmpmx=   8.5267E-11

== TH FLOW =====================================================================
 Step    548 Time=  2.68000E+01 Dt=  5.00000E-02 [y] snes_conv_reason:   11
  newton =   1 [     556] linear =    86 [     63185] cuts =  0 [   0]
  --> max chng: dpmx=   2.3283E-10 dtmpmx=   1.0092E-10

== TH FLOW =====================================================================
 Step    549 Time=  2.68500E+01 Dt=  5.00000E-02 [y] snes_conv_reason:   11
  newton =   1 [     557] linear =    58 [     63243] cuts =  0 [   0]
  --> max chng: dpmx=   2.3283E-10 dtmpmx=   9.3946E-11

== TH FLOW =====================================================================
 Step    550 Time=  2.69000E+01 Dt=  5.00000E-02 [y] snes_conv_reason:   11
  newton =   1 [     558] linear =    74 [     63317] cuts =  0 [   0]
  --> max chng: dpmx=   2.3283E-10 dtmpmx=   1.0353E-10

== TH FLOW =====================================================================
 Step    551 Time=  2.69500E+01 Dt=  5.00000E-02 [y] snes_conv_reason:   11
  newton =   1 [     559] linear =   106 [     63423] cuts =  0 [   0]
  --> max chng: dpmx=   1.1642E-10 dtmpmx=   8.1499E-11

== TH FLOW =====================================================================
 Step    552 Time=  2.70000E+01 Dt=  5.00000E-02 [y] snes_conv_reason:   11
  newton =   1 [     560] linear =   118 [     63541] cuts =  0 [   0]
  --> max chng: dpmx=   1.1642E-10 dtmpmx=   7.8247E-11

== TH FLOW =====================================================================
 Step    553 Time=  2.70500E+01 Dt=  5.00000E-02 [y] snes_conv_reason:   11
  newton =   1 [     561] linear =   102 [     63643] cuts =  0 [   0]
  --> max chng: dpmx=   1.1642E-10 dtmpmx=   8.5768E-11

== TH FLOW =====================================================================
 Step    554 Time=  2.71000E+01 Dt=  5.00000E-02 [y] snes_conv_reason:   11
  newton =   1 [     562] linear =    74 [     63717] cuts =  0 [   0]
  --> max chng: dpmx=   1.1642E-10 dtmpmx=   8.9349E-11

== TH FLOW =====================================================================
 Step    555 Time=  2.71500E+01 Dt=  5.00000E-02 [y] snes_conv_reason:   11
  newton =   1 [     563] linear =   119 [     63836] cuts =  0 [   0]
  --> max chng: dpmx=   1.1642E-10 dtmpmx=   8.2306E-11

== TH FLOW =====================================================================
 Step    556 Time=  2.72000E+01 Dt=  5.00000E-02 [y] snes_conv_reason:   11
  newton =   1 [     564] linear =    96 [     63932] cuts =  0 [   0]
  --> max chng: dpmx=   1.1642E-10 dtmpmx=   7.6506E-11

== TH FLOW =====================================================================
 Step    557 Time=  2.72500E+01 Dt=  5.00000E-02 [y] snes_conv_reason:   11
  newton =   1 [     565] linear =   124 [     64056] cuts =  0 [   0]
  --> max chng: dpmx=   1.1642E-10 dtmpmx=   8.4784E-11

== TH FLOW =====================================================================
 Step    558 Time=  2.73000E+01 Dt=  5.00000E-02 [y] snes_conv_reason:   11
  newton =   1 [     566] linear =    86 [     64142] cuts =  0 [   0]
  --> max chng: dpmx=   1.1642E-10 dtmpmx=   8.8601E-11

== TH FLOW =====================================================================
 Step    559 Time=  2.73500E+01 Dt=  5.00000E-02 [y] snes_conv_reason:   11
  newton =   1 [     567] linear =    52 [     64194] cuts =  0 [   0]
  --> max chng: dpmx=   1.1642E-10 dtmpmx=   8.9445E-11

== TH FLOW =====================================================================
 Step    560 Time=  2.74000E+01 Dt=  5.00000E-02 [y] snes_conv_reason:   11
  newton =   1 [     568] linear =   100 [     64294] cuts =  0 [   0]
  --> max chng: dpmx=   1.1642E-10 dtmpmx=   8.1991E-11

== TH FLOW =====================================================================
 Step    561 Time=  2.74500E+01 Dt=  5.00000E-02 [y] snes_conv_reason:   11
  newton =   1 [     569] linear =   107 [     64401] cuts =  0 [   0]
  --> max chng: dpmx=   2.3283E-10 dtmpmx=   8.4576E-11

== TH FLOW =====================================================================
 Step    562 Time=  2.75000E+01 Dt=  5.00000E-02 [y] snes_conv_reason:   11
  newton =   1 [     570] linear =   106 [     64507] cuts =  0 [   0]
  --> max chng: dpmx=   2.3283E-10 dtmpmx=   8.8205E-11

 Wall Clock Time:  1.0688E+02 [sec]   1.7813E+00 [min]   2.9689E-02 [hr]
