
===================
  PFLOTRAN v3.0.1
===================

 Extent of Gridded Domain
  X: 2.5000000000000000 - 97.500000000000000
  Y: 2.5000000000000000 - 1277.5000000000000
  Z: 2.5000000000000000 - 2.5000000000000000


=+=+=+=+=+=+=+=+=+=+=+=+=+=+=+=+=+=+=+=+=+=+=+=+=+=+=+=+=+=+=+=+=+=+=+=+=+=+=+=+

  Initial Condition

--------------------------------------------------------------------------------
          Flow Condition:   initial
                  Region:   all
--------------------------------------------------------------------------------

  Flow Condition: initial
    Synchronize time with update: no
    Time units: yr
    Length units: m
      Datum:
        Dataset: Unnamed Ascii Dataset
          Type: dataset_ascii_type
          Transient: no
          Array Rank:  3

    Sub Condition: pressure
      Type: hydrostatic
      Gradient:
        Dataset: Unnamed Ascii Dataset
          Type: dataset_ascii_type
          Transient: no
          Array Rank:  3
      Data:
        Dataset: Unnamed Ascii Dataset
          Type: dataset_ascii_type
          Transient: no
          Array Rank:  1

    Sub Condition: temperature
      Type: dirichlet
      Gradient:
      Data:
        Dataset: Unnamed Ascii Dataset
          Type: dataset_ascii_type
          Transient: no
          Array Rank:  1

--------------------------------------------------------------------------------

=+=+=+=+=+=+=+=+=+=+=+=+=+=+=+=+=+=+=+=+=+=+=+=+=+=+=+=+=+=+=+=+=+=+=+=+=+=+=+=+

  Boundary Condition

--------------------------------------------------------------------------------
          Flow Condition:   initial
                  Region:   north
--------------------------------------------------------------------------------

  Flow Condition: initial
    Synchronize time with update: no
    Time units: yr
    Length units: m
      Datum:
        Dataset: Unnamed Ascii Dataset
          Type: dataset_ascii_type
          Transient: no
          Array Rank:  3

    Sub Condition: pressure
      Type: hydrostatic
      Gradient:
        Dataset: Unnamed Ascii Dataset
          Type: dataset_ascii_type
          Transient: no
          Array Rank:  3
      Data:
        Dataset: Unnamed Ascii Dataset
          Type: dataset_ascii_type
          Transient: no
          Array Rank:  1

    Sub Condition: temperature
      Type: dirichlet
      Gradient:
      Data:
        Dataset: Unnamed Ascii Dataset
          Type: dataset_ascii_type
          Transient: no
          Array Rank:  1

--------------------------------------------------------------------------------

=+=+=+=+=+=+=+=+=+=+=+=+=+=+=+=+=+=+=+=+=+=+=+=+=+=+=+=+=+=+=+=+=+=+=+=+=+=+=+=+

  Boundary Condition

--------------------------------------------------------------------------------
          Flow Condition:   initial
                  Region:   south
--------------------------------------------------------------------------------

  Flow Condition: initial
    Synchronize time with update: no
    Time units: yr
    Length units: m
      Datum:
        Dataset: Unnamed Ascii Dataset
          Type: dataset_ascii_type
          Transient: no
          Array Rank:  3

    Sub Condition: pressure
      Type: hydrostatic
      Gradient:
        Dataset: Unnamed Ascii Dataset
          Type: dataset_ascii_type
          Transient: no
          Array Rank:  3
      Data:
        Dataset: Unnamed Ascii Dataset
          Type: dataset_ascii_type
          Transient: no
          Array Rank:  1

    Sub Condition: temperature
      Type: dirichlet
      Gradient:
      Data:
        Dataset: Unnamed Ascii Dataset
          Type: dataset_ascii_type
          Transient: no
          Array Rank:  1

--------------------------------------------------------------------------------

=+=+=+=+=+=+=+=+=+=+=+=+=+=+=+=+=+=+=+=+=+=+=+=+=+=+=+=+=+=+=+=+=+=+=+=+=+=+=+=+

  Source Sink

--------------------------------------------------------------------------------
          Flow Condition:   injection
                  Region:   heatpump_inject0
--------------------------------------------------------------------------------

  Flow Condition: injection
    Synchronize time with update: no
    Time units: yr
    Length units: m
      Datum:

    Sub Condition: rate
      Type: scaled volumetric rate
      Gradient:
      Data:
        Dataset: Unnamed Ascii Dataset
          Type: dataset_ascii_type
          Is transient?: yes
          Number of times:      3
          Is cyclic?: no
          Buffer:
            Rank:  2
            Dims:    1   3
            Buffer Slice Size:   0
          Array Rank:  1

    Sub Condition: temperature
      Type: dirichlet
      Gradient:
      Data:
        Dataset: Unnamed Ascii Dataset
          Type: dataset_ascii_type
          Transient: no
          Array Rank:  1

--------------------------------------------------------------------------------

 Requested processors =    32

FLOW Time Stepper
                 acceleration: on
       acceleration threshold: 5
       number of ramp entries: 5
                ramp entry #1: 2.0000
                ramp entry #2: 2.0000
                ramp entry #3: 2.0000
                ramp entry #4: 2.0000
                ramp entry #5: 2.0000
                ramp entry #6: 1.8000
                ramp entry #7: 1.6000
                ramp entry #8: 1.4000
                ramp entry #9: 1.2000
               ramp entry #10: 1.0000
               ramp entry #11: 1.0000
               ramp entry #12: 1.0000
               ramp entry #13: 1.0000
      maximum number of steps: 999999
constant time steps threshold: 5
       maximum number of cuts: 16
             reduction factor: 5.000000E-01
        maximum growth factor: 2.000000E+00

FLOW Newton Solver
                         atol: 1.000000E-50
                         rtol: 1.000000E-03
                         stol: 1.000000E-08
                         dtol: 1.000000E+04
                      maxnorm: 1.000000E+20
                    inftolres: -9.990000E+02
                    inftolupd: 1.000000E+00
                 inftolrelupd: -9.990000E+02
                 inftolsclres: -9.990000E+02
                     max iter: 50
                     min iter: 1
                         maxf: 10000
                  matrix type: baij
         precond. matrix type: baij
               inexact newton: off
            print convergence: on
   print detailed convergence: off
          check infinity norm: on

FLOW Linear Solver
                       solver: bcgs
               preconditioner: bjacobi
                         atol: 1.000000E-50
                         rtol: 1.000000E-05
                         dtol: 1.000000E+04
            maximum iteration: 10000

== TH FLOW =====================================================================
 Step      1 Time=  1.00000E-05 Dt=  1.00000E-05 [y] snes_conv_reason:   11
  newton =   1 [       1] linear =   108 [       108] cuts =  0 [   0]
  --> max chng: dpmx=   8.8573E-02 dtmpmx=   8.8553E-09

== TH FLOW =====================================================================
 Step      2 Time=  3.00000E-05 Dt=  2.00000E-05 [y] snes_conv_reason:   11
  newton =   1 [       2] linear =   125 [       233] cuts =  0 [   0]
  --> max chng: dpmx=   2.7401E-02 dtmpmx=   1.7523E-08

== TH FLOW =====================================================================
 Step      3 Time=  7.00000E-05 Dt=  4.00000E-05 [y] snes_conv_reason:   11
  newton =   1 [       3] linear =   114 [       347] cuts =  0 [   0]
  --> max chng: dpmx=   4.4438E-03 dtmpmx=   3.4984E-08

== TH FLOW =====================================================================
 Step      4 Time=  1.50000E-04 Dt=  8.00000E-05 [y] snes_conv_reason:   11
  newton =   1 [       4] linear =   112 [       459] cuts =  0 [   0]
  --> max chng: dpmx=   3.7371E-04 dtmpmx=   6.9958E-08

== TH FLOW =====================================================================
 Step      5 Time=  3.10000E-04 Dt=  1.60000E-04 [y] snes_conv_reason:   11
  newton =   1 [       5] linear =   120 [       579] cuts =  0 [   0]
  --> max chng: dpmx=   1.5771E-05 dtmpmx=   1.3992E-07

== TH FLOW =====================================================================
 Step      6 Time=  6.30000E-04 Dt=  3.20000E-04 [y] snes_conv_reason:   11
  newton =   1 [       6] linear =   130 [       709] cuts =  0 [   0]
  --> max chng: dpmx=   1.1162E-06 dtmpmx=   2.7983E-07

== TH FLOW =====================================================================
 Step      7 Time=  1.27000E-03 Dt=  6.40000E-04 [y] snes_conv_reason:   11
  newton =   1 [       7] linear =   118 [       827] cuts =  0 [   0]
  --> max chng: dpmx=   2.2909E-06 dtmpmx=   5.5966E-07

== TH FLOW =====================================================================
 Step      8 Time=  2.55000E-03 Dt=  1.28000E-03 [y] snes_conv_reason:   11
  newton =   1 [       8] linear =   129 [       956] cuts =  0 [   0]
  --> max chng: dpmx=   4.7237E-06 dtmpmx=   1.1193E-06

== TH FLOW =====================================================================
 Step      9 Time=  5.11000E-03 Dt=  2.56000E-03 [y] snes_conv_reason:   11
  newton =   1 [       9] linear =   122 [      1078] cuts =  0 [   0]
  --> max chng: dpmx=   1.0009E-05 dtmpmx=   2.2387E-06

== TH FLOW =====================================================================
 Step     10 Time=  1.02300E-02 Dt=  5.12000E-03 [y] snes_conv_reason:   11
  newton =   1 [      10] linear =   124 [      1202] cuts =  0 [   0]
  --> max chng: dpmx=   2.2333E-05 dtmpmx=   4.4773E-06

== TH FLOW =====================================================================
 Step     11 Time=  2.04700E-02 Dt=  1.02400E-02 [y] snes_conv_reason:   11
  newton =   1 [      11] linear =   133 [      1335] cuts =  0 [   0]
  --> max chng: dpmx=   5.3773E-05 dtmpmx=   8.9546E-06

== TH FLOW =====================================================================
 Step     12 Time=  4.09500E-02 Dt=  2.04800E-02 [y] snes_conv_reason:   11
  newton =   1 [      12] linear =   120 [      1455] cuts =  0 [   0]
  --> max chng: dpmx=   1.4371E-04 dtmpmx=   1.7909E-05

== TH FLOW =====================================================================
 Step     13 Time=  8.19100E-02 Dt=  4.09600E-02 [y] snes_conv_reason:   11
  newton =   1 [      13] linear =   134 [      1589] cuts =  0 [   0]
  --> max chng: dpmx=   4.2910E-04 dtmpmx=   3.5819E-05

== TH FLOW =====================================================================
 Step     14 Time=  1.00000E-01 Dt=  1.80900E-02 [y] snes_conv_reason:   11
  newton =   1 [      14] linear =   135 [      1724] cuts =  0 [   0]
  --> max chng: dpmx=   2.1722E-04 dtmpmx=   1.5819E-05

== TH FLOW =====================================================================
 Step     15 Time=  1.50000E-01 Dt=  5.00000E-02 [y] snes_conv_reason:   11
  newton =   1 [      15] linear =   133 [      1857] cuts =  0 [   0]
  --> max chng: dpmx=   8.0767E-04 dtmpmx=   4.3724E-05

== TH FLOW =====================================================================
 Step     16 Time=  2.00000E-01 Dt=  5.00000E-02 [y] snes_conv_reason:   11
  newton =   1 [      16] linear =   133 [      1990] cuts =  0 [   0]
  --> max chng: dpmx=   1.0117E-03 dtmpmx=   4.3724E-05

== TH FLOW =====================================================================
 Step     17 Time=  2.50000E-01 Dt=  5.00000E-02 [y] snes_conv_reason:   11
  newton =   3 [      19] linear =   384 [      2374] cuts =  0 [   0]
  --> max chng: dpmx=   4.0085E+02 dtmpmx=   2.9231E+00

== TH FLOW =====================================================================
 Step     18 Time=  3.00000E-01 Dt=  5.00000E-02 [y] snes_conv_reason:   11
  newton =   2 [      21] linear =   267 [      2641] cuts =  0 [   0]
  --> max chng: dpmx=   3.3565E+00 dtmpmx=   1.1326E+00

== TH FLOW =====================================================================
 Step     19 Time=  3.50000E-01 Dt=  5.00000E-02 [y] snes_conv_reason:   11
  newton =   2 [      23] linear =   280 [      2921] cuts =  0 [   0]
  --> max chng: dpmx=   2.6642E+00 dtmpmx=   8.2147E-01

== TH FLOW =====================================================================
 Step     20 Time=  4.00000E-01 Dt=  5.00000E-02 [y] snes_conv_reason:   11
  newton =   2 [      25] linear =   278 [      3199] cuts =  0 [   0]
  --> max chng: dpmx=   2.4906E+00 dtmpmx=   6.5872E-01

== TH FLOW =====================================================================
 Step     21 Time=  4.50000E-01 Dt=  5.00000E-02 [y] snes_conv_reason:   11
  newton =   2 [      27] linear =   270 [      3469] cuts =  0 [   0]
  --> max chng: dpmx=   2.3733E+00 dtmpmx=   5.7024E-01

== TH FLOW =====================================================================
 Step     22 Time=  5.00000E-01 Dt=  5.00000E-02 [y] snes_conv_reason:   11
  newton =   2 [      29] linear =   261 [      3730] cuts =  0 [   0]
  --> max chng: dpmx=   2.2897E+00 dtmpmx=   5.0263E-01

== TH FLOW =====================================================================
 Step     23 Time=  5.50000E-01 Dt=  5.00000E-02 [y] snes_conv_reason:   11
  newton =   2 [      31] linear =   272 [      4002] cuts =  0 [   0]
  --> max chng: dpmx=   2.2242E+00 dtmpmx=   4.5554E-01

== TH FLOW =====================================================================
 Step     24 Time=  6.00000E-01 Dt=  5.00000E-02 [y] snes_conv_reason:    3
  newton =   1 [      32] linear =   133 [      4135] cuts =  0 [   0]
  --> max chng: dpmx=   2.1701E+00 dtmpmx=   4.1860E-01

== TH FLOW =====================================================================
 Step     25 Time=  6.50000E-01 Dt=  5.00000E-02 [y] snes_conv_reason:    3
  newton =   1 [      33] linear =   137 [      4272] cuts =  0 [   0]
  --> max chng: dpmx=   2.1247E+00 dtmpmx=   3.8618E-01

== TH FLOW =====================================================================
 Step     26 Time=  7.00000E-01 Dt=  5.00000E-02 [y] snes_conv_reason:    3
  newton =   1 [      34] linear =   135 [      4407] cuts =  0 [   0]
  --> max chng: dpmx=   2.0842E+00 dtmpmx=   3.6227E-01

== TH FLOW =====================================================================
 Step     27 Time=  7.50000E-01 Dt=  5.00000E-02 [y] snes_conv_reason:    3
  newton =   1 [      35] linear =   136 [      4543] cuts =  0 [   0]
  --> max chng: dpmx=   2.0485E+00 dtmpmx=   3.4056E-01

== TH FLOW =====================================================================
 Step     28 Time=  8.00000E-01 Dt=  5.00000E-02 [y] snes_conv_reason:    3
  newton =   1 [      36] linear =   135 [      4678] cuts =  0 [   0]
  --> max chng: dpmx=   2.0160E+00 dtmpmx=   3.2085E-01

== TH FLOW =====================================================================
 Step     29 Time=  8.50000E-01 Dt=  5.00000E-02 [y] snes_conv_reason:    3
  newton =   1 [      37] linear =   123 [      4801] cuts =  0 [   0]
  --> max chng: dpmx=   1.9862E+00 dtmpmx=   3.0544E-01

== TH FLOW =====================================================================
 Step     30 Time=  9.00000E-01 Dt=  5.00000E-02 [y] snes_conv_reason:    3
  newton =   1 [      38] linear =   136 [      4937] cuts =  0 [   0]
  --> max chng: dpmx=   1.9590E+00 dtmpmx=   2.9071E-01

== TH FLOW =====================================================================
 Step     31 Time=  9.50000E-01 Dt=  5.00000E-02 [y] snes_conv_reason:    3
  newton =   1 [      39] linear =   136 [      5073] cuts =  0 [   0]
  --> max chng: dpmx=   1.9328E+00 dtmpmx=   2.7725E-01

== TH FLOW =====================================================================
 Step     32 Time=  1.00000E+00 Dt=  5.00000E-02 [y] snes_conv_reason:    3
  newton =   1 [      40] linear =   132 [      5205] cuts =  0 [   0]
  --> max chng: dpmx=   1.9082E+00 dtmpmx=   2.6611E-01

== TH FLOW =====================================================================
 Step     33 Time=  1.05000E+00 Dt=  5.00000E-02 [y] snes_conv_reason:    3
  newton =   1 [      41] linear =   135 [      5340] cuts =  0 [   0]
  --> max chng: dpmx=   1.8841E+00 dtmpmx=   2.5526E-01

== TH FLOW =====================================================================
 Step     34 Time=  1.10000E+00 Dt=  5.00000E-02 [y] snes_conv_reason:    3
  newton =   1 [      42] linear =   133 [      5473] cuts =  0 [   0]
  --> max chng: dpmx=   1.8610E+00 dtmpmx=   2.4535E-01

== TH FLOW =====================================================================
 Step     35 Time=  1.15000E+00 Dt=  5.00000E-02 [y] snes_conv_reason:    3
  newton =   1 [      43] linear =   135 [      5608] cuts =  0 [   0]
  --> max chng: dpmx=   1.8393E+00 dtmpmx=   2.3680E-01

== TH FLOW =====================================================================
 Step     36 Time=  1.20000E+00 Dt=  5.00000E-02 [y] snes_conv_reason:    3
  newton =   1 [      44] linear =   134 [      5742] cuts =  0 [   0]
  --> max chng: dpmx=   1.8178E+00 dtmpmx=   2.2839E-01

== TH FLOW =====================================================================
 Step     37 Time=  1.25000E+00 Dt=  5.00000E-02 [y] snes_conv_reason:    3
  newton =   1 [      45] linear =   133 [      5875] cuts =  0 [   0]
  --> max chng: dpmx=   1.7966E+00 dtmpmx=   2.2071E-01

== TH FLOW =====================================================================
 Step     38 Time=  1.30000E+00 Dt=  5.00000E-02 [y] snes_conv_reason:    3
  newton =   1 [      46] linear =   133 [      6008] cuts =  0 [   0]
  --> max chng: dpmx=   1.7769E+00 dtmpmx=   2.1389E-01

== TH FLOW =====================================================================
 Step     39 Time=  1.35000E+00 Dt=  5.00000E-02 [y] snes_conv_reason:    3
  newton =   1 [      47] linear =   132 [      6140] cuts =  0 [   0]
  --> max chng: dpmx=   1.7576E+00 dtmpmx=   2.0712E-01

== TH FLOW =====================================================================
 Step     40 Time=  1.40000E+00 Dt=  5.00000E-02 [y] snes_conv_reason:    3
  newton =   1 [      48] linear =   134 [      6274] cuts =  0 [   0]
  --> max chng: dpmx=   1.7377E+00 dtmpmx=   2.0096E-01

== TH FLOW =====================================================================
 Step     41 Time=  1.45000E+00 Dt=  5.00000E-02 [y] snes_conv_reason:    3
  newton =   1 [      49] linear =   134 [      6408] cuts =  0 [   0]
  --> max chng: dpmx=   1.7184E+00 dtmpmx=   1.9536E-01

== TH FLOW =====================================================================
 Step     42 Time=  1.50000E+00 Dt=  5.00000E-02 [y] snes_conv_reason:    3
  newton =   1 [      50] linear =   129 [      6537] cuts =  0 [   0]
  --> max chng: dpmx=   1.6996E+00 dtmpmx=   1.8977E-01

== TH FLOW =====================================================================
 Step     43 Time=  1.55000E+00 Dt=  5.00000E-02 [y] snes_conv_reason:    3
  newton =   1 [      51] linear =   128 [      6665] cuts =  0 [   0]
  --> max chng: dpmx=   1.6816E+00 dtmpmx=   1.8470E-01

== TH FLOW =====================================================================
 Step     44 Time=  1.60000E+00 Dt=  5.00000E-02 [y] snes_conv_reason:    3
  newton =   1 [      52] linear =   134 [      6799] cuts =  0 [   0]
  --> max chng: dpmx=   1.6629E+00 dtmpmx=   1.8000E-01

== TH FLOW =====================================================================
 Step     45 Time=  1.65000E+00 Dt=  5.00000E-02 [y] snes_conv_reason:    3
  newton =   1 [      53] linear =   134 [      6933] cuts =  0 [   0]
  --> max chng: dpmx=   1.6452E+00 dtmpmx=   1.7529E-01

== TH FLOW =====================================================================
 Step     46 Time=  1.70000E+00 Dt=  5.00000E-02 [y] snes_conv_reason:    3
  newton =   1 [      54] linear =   129 [      7062] cuts =  0 [   0]
  --> max chng: dpmx=   1.6272E+00 dtmpmx=   1.7103E-01

== TH FLOW =====================================================================
 Step     47 Time=  1.75000E+00 Dt=  5.00000E-02 [y] snes_conv_reason:    3
  newton =   1 [      55] linear =   134 [      7196] cuts =  0 [   0]
  --> max chng: dpmx=   1.6102E+00 dtmpmx=   1.6702E-01

== TH FLOW =====================================================================
 Step     48 Time=  1.80000E+00 Dt=  5.00000E-02 [y] snes_conv_reason:    3
  newton =   1 [      56] linear =   136 [      7332] cuts =  0 [   0]
  --> max chng: dpmx=   1.5921E+00 dtmpmx=   1.6298E-01

== TH FLOW =====================================================================
 Step     49 Time=  1.85000E+00 Dt=  5.00000E-02 [y] snes_conv_reason:    3
  newton =   1 [      57] linear =   135 [      7467] cuts =  0 [   0]
  --> max chng: dpmx=   1.5752E+00 dtmpmx=   1.5934E-01

== TH FLOW =====================================================================
 Step     50 Time=  1.90000E+00 Dt=  5.00000E-02 [y] snes_conv_reason:    3
  newton =   1 [      58] linear =   133 [      7600] cuts =  0 [   0]
  --> max chng: dpmx=   1.5582E+00 dtmpmx=   1.5588E-01

== TH FLOW =====================================================================
 Step     51 Time=  1.95000E+00 Dt=  5.00000E-02 [y] snes_conv_reason:    3
  newton =   1 [      59] linear =   126 [      7726] cuts =  0 [   0]
  --> max chng: dpmx=   1.5410E+00 dtmpmx=   1.5238E-01

== TH FLOW =====================================================================
 Step     52 Time=  2.00000E+00 Dt=  5.00000E-02 [y] snes_conv_reason:    3
  newton =   1 [      60] linear =   134 [      7860] cuts =  0 [   0]
  --> max chng: dpmx=   1.5238E+00 dtmpmx=   1.4923E-01

== TH FLOW =====================================================================
 Step     53 Time=  2.05000E+00 Dt=  5.00000E-02 [y] snes_conv_reason:    3
  newton =   1 [      61] linear =   137 [      7997] cuts =  0 [   0]
  --> max chng: dpmx=   1.5078E+00 dtmpmx=   1.4620E-01

== TH FLOW =====================================================================
 Step     54 Time=  2.10000E+00 Dt=  5.00000E-02 [y] snes_conv_reason:    3
  newton =   1 [      62] linear =   133 [      8130] cuts =  0 [   0]
  --> max chng: dpmx=   1.4911E+00 dtmpmx=   1.4313E-01

== TH FLOW =====================================================================
 Step     55 Time=  2.15000E+00 Dt=  5.00000E-02 [y] snes_conv_reason:    3
  newton =   1 [      63] linear =   129 [      8259] cuts =  0 [   0]
  --> max chng: dpmx=   1.4746E+00 dtmpmx=   1.4038E-01

== TH FLOW =====================================================================
 Step     56 Time=  2.20000E+00 Dt=  5.00000E-02 [y] snes_conv_reason:    3
  newton =   1 [      64] linear =   124 [      8383] cuts =  0 [   0]
  --> max chng: dpmx=   1.4579E+00 dtmpmx=   1.3770E-01

== TH FLOW =====================================================================
 Step     57 Time=  2.25000E+00 Dt=  5.00000E-02 [y] snes_conv_reason:    3
  newton =   1 [      65] linear =   134 [      8517] cuts =  0 [   0]
  --> max chng: dpmx=   1.4422E+00 dtmpmx=   1.3498E-01

== TH FLOW =====================================================================
 Step     58 Time=  2.30000E+00 Dt=  5.00000E-02 [y] snes_conv_reason:    3
  newton =   1 [      66] linear =   130 [      8647] cuts =  0 [   0]
  --> max chng: dpmx=   1.4252E+00 dtmpmx=   1.3256E-01

== TH FLOW =====================================================================
 Step     59 Time=  2.35000E+00 Dt=  5.00000E-02 [y] snes_conv_reason:    3
  newton =   1 [      67] linear =   127 [      8774] cuts =  0 [   0]
  --> max chng: dpmx=   1.4102E+00 dtmpmx=   1.3018E-01

== TH FLOW =====================================================================
 Step     60 Time=  2.40000E+00 Dt=  5.00000E-02 [y] snes_conv_reason:    3
  newton =   1 [      68] linear =   132 [      8906] cuts =  0 [   0]
  --> max chng: dpmx=   1.3928E+00 dtmpmx=   1.2775E-01

== TH FLOW =====================================================================
 Step     61 Time=  2.45000E+00 Dt=  5.00000E-02 [y] snes_conv_reason:    3
  newton =   1 [      69] linear =   133 [      9039] cuts =  0 [   0]
  --> max chng: dpmx=   1.3779E+00 dtmpmx=   1.2560E-01

== TH FLOW =====================================================================
 Step     62 Time=  2.50000E+00 Dt=  5.00000E-02 [y] snes_conv_reason:    3
  newton =   1 [      70] linear =   129 [      9168] cuts =  0 [   0]
  --> max chng: dpmx=   1.3619E+00 dtmpmx=   1.2346E-01

== TH FLOW =====================================================================
 Step     63 Time=  2.55000E+00 Dt=  5.00000E-02 [y] snes_conv_reason:    3
  newton =   1 [      71] linear =   125 [      9293] cuts =  0 [   0]
  --> max chng: dpmx=   1.3455E+00 dtmpmx=   1.2129E-01

== TH FLOW =====================================================================
 Step     64 Time=  2.60000E+00 Dt=  5.00000E-02 [y] snes_conv_reason:    3
  newton =   1 [      72] linear =   129 [      9422] cuts =  0 [   0]
  --> max chng: dpmx=   1.3298E+00 dtmpmx=   1.1936E-01

== TH FLOW =====================================================================
 Step     65 Time=  2.65000E+00 Dt=  5.00000E-02 [y] snes_conv_reason:    3
  newton =   1 [      73] linear =   127 [      9549] cuts =  0 [   0]
  --> max chng: dpmx=   1.3146E+00 dtmpmx=   1.1743E-01

== TH FLOW =====================================================================
 Step     66 Time=  2.70000E+00 Dt=  5.00000E-02 [y] snes_conv_reason:    3
  newton =   1 [      74] linear =   129 [      9678] cuts =  0 [   0]
  --> max chng: dpmx=   1.2988E+00 dtmpmx=   1.1547E-01

== TH FLOW =====================================================================
 Step     67 Time=  2.75000E+00 Dt=  5.00000E-02 [y] snes_conv_reason:    3
  newton =   1 [      75] linear =   129 [      9807] cuts =  0 [   0]
  --> max chng: dpmx=   1.2831E+00 dtmpmx=   1.1373E-01

== TH FLOW =====================================================================
 Step     68 Time=  2.80000E+00 Dt=  5.00000E-02 [y] snes_conv_reason:    3
  newton =   1 [      76] linear =   124 [      9931] cuts =  0 [   0]
  --> max chng: dpmx=   1.2678E+00 dtmpmx=   1.1198E-01

== TH FLOW =====================================================================
 Step     69 Time=  2.85000E+00 Dt=  5.00000E-02 [y] snes_conv_reason:    3
  newton =   1 [      77] linear =   133 [     10064] cuts =  0 [   0]
  --> max chng: dpmx=   1.2520E+00 dtmpmx=   1.1020E-01

== TH FLOW =====================================================================
 Step     70 Time=  2.90000E+00 Dt=  5.00000E-02 [y] snes_conv_reason:    3
  newton =   1 [      78] linear =   129 [     10193] cuts =  0 [   0]
  --> max chng: dpmx=   1.2369E+00 dtmpmx=   1.0862E-01

== TH FLOW =====================================================================
 Step     71 Time=  2.95000E+00 Dt=  5.00000E-02 [y] snes_conv_reason:    3
  newton =   1 [      79] linear =   135 [     10328] cuts =  0 [   0]
  --> max chng: dpmx=   1.2213E+00 dtmpmx=   1.0703E-01

== TH FLOW =====================================================================
 Step     72 Time=  3.00000E+00 Dt=  5.00000E-02 [y] snes_conv_reason:    3
  newton =   1 [      80] linear =   130 [     10458] cuts =  0 [   0]
  --> max chng: dpmx=   1.2058E+00 dtmpmx=   1.0540E-01

== TH FLOW =====================================================================
 Step     73 Time=  3.05000E+00 Dt=  5.00000E-02 [y] snes_conv_reason:    3
  newton =   1 [      81] linear =   137 [     10595] cuts =  0 [   0]
  --> max chng: dpmx=   1.1910E+00 dtmpmx=   1.0397E-01

== TH FLOW =====================================================================
 Step     74 Time=  3.10000E+00 Dt=  5.00000E-02 [y] snes_conv_reason:    3
  newton =   1 [      82] linear =   132 [     10727] cuts =  0 [   0]
  --> max chng: dpmx=   1.1752E+00 dtmpmx=   1.0252E-01

== TH FLOW =====================================================================
 Step     75 Time=  3.15000E+00 Dt=  5.00000E-02 [y] snes_conv_reason:    3
  newton =   1 [      83] linear =   133 [     10860] cuts =  0 [   0]
  --> max chng: dpmx=   1.1606E+00 dtmpmx=   1.0103E-01

== TH FLOW =====================================================================
 Step     76 Time=  3.20000E+00 Dt=  5.00000E-02 [y] snes_conv_reason:    3
  newton =   1 [      84] linear =   123 [     10983] cuts =  0 [   0]
  --> max chng: dpmx=   1.1451E+00 dtmpmx=   9.9718E-02

== TH FLOW =====================================================================
 Step     77 Time=  3.25000E+00 Dt=  5.00000E-02 [y] snes_conv_reason:    3
  newton =   1 [      85] linear =   127 [     11110] cuts =  0 [   0]
  --> max chng: dpmx=   1.1300E+00 dtmpmx=   9.8380E-02

== TH FLOW =====================================================================
 Step     78 Time=  3.30000E+00 Dt=  5.00000E-02 [y] snes_conv_reason:    3
  newton =   1 [      86] linear =   129 [     11239] cuts =  0 [   0]
  --> max chng: dpmx=   1.1147E+00 dtmpmx=   9.7009E-02

== TH FLOW =====================================================================
 Step     79 Time=  3.35000E+00 Dt=  5.00000E-02 [y] snes_conv_reason:    3
  newton =   1 [      87] linear =   128 [     11367] cuts =  0 [   0]
  --> max chng: dpmx=   1.0998E+00 dtmpmx=   9.5809E-02

== TH FLOW =====================================================================
 Step     80 Time=  3.40000E+00 Dt=  5.00000E-02 [y] snes_conv_reason:    3
  newton =   1 [      88] linear =   131 [     11498] cuts =  0 [   0]
  --> max chng: dpmx=   1.0849E+00 dtmpmx=   9.4575E-02

== TH FLOW =====================================================================
 Step     81 Time=  3.45000E+00 Dt=  5.00000E-02 [y] snes_conv_reason:    3
  newton =   1 [      89] linear =   132 [     11630] cuts =  0 [   0]
  --> max chng: dpmx=   1.0699E+00 dtmpmx=   9.3314E-02

== TH FLOW =====================================================================
 Step     82 Time=  3.50000E+00 Dt=  5.00000E-02 [y] snes_conv_reason:    3
  newton =   1 [      90] linear =   132 [     11762] cuts =  0 [   0]
  --> max chng: dpmx=   1.0548E+00 dtmpmx=   9.2206E-02

== TH FLOW =====================================================================
 Step     83 Time=  3.55000E+00 Dt=  5.00000E-02 [y] snes_conv_reason:    3
  newton =   1 [      91] linear =   132 [     11894] cuts =  0 [   0]
  --> max chng: dpmx=   1.0398E+00 dtmpmx=   9.1064E-02

== TH FLOW =====================================================================
 Step     84 Time=  3.60000E+00 Dt=  5.00000E-02 [y] snes_conv_reason:    3
  newton =   1 [      92] linear =   128 [     12022] cuts =  0 [   0]
  --> max chng: dpmx=   1.0248E+00 dtmpmx=   8.9901E-02

== TH FLOW =====================================================================
 Step     85 Time=  3.65000E+00 Dt=  5.00000E-02 [y] snes_conv_reason:    3
  newton =   1 [      93] linear =   135 [     12157] cuts =  0 [   0]
  --> max chng: dpmx=   1.0101E+00 dtmpmx=   8.8873E-02

== TH FLOW =====================================================================
 Step     86 Time=  3.70000E+00 Dt=  5.00000E-02 [y] snes_conv_reason:   11
  newton =   1 [      94] linear =   129 [     12286] cuts =  0 [   0]
  --> max chng: dpmx=   9.9501E-01 dtmpmx=   8.7814E-02

== TH FLOW =====================================================================
 Step     87 Time=  3.75000E+00 Dt=  5.00000E-02 [y] snes_conv_reason:   11
  newton =   1 [      95] linear =   131 [     12417] cuts =  0 [   0]
  --> max chng: dpmx=   9.8044E-01 dtmpmx=   8.6737E-02

== TH FLOW =====================================================================
 Step     88 Time=  3.80000E+00 Dt=  5.00000E-02 [y] snes_conv_reason:   11
  newton =   1 [      96] linear =   130 [     12547] cuts =  0 [   0]
  --> max chng: dpmx=   9.6557E-01 dtmpmx=   8.5781E-02

== TH FLOW =====================================================================
 Step     89 Time=  3.85000E+00 Dt=  5.00000E-02 [y] snes_conv_reason:   11
  newton =   1 [      97] linear =   130 [     12677] cuts =  0 [   0]
  --> max chng: dpmx=   9.5106E-01 dtmpmx=   8.4795E-02

== TH FLOW =====================================================================
 Step     90 Time=  3.90000E+00 Dt=  5.00000E-02 [y] snes_conv_reason:   11
  newton =   1 [      98] linear =   133 [     12810] cuts =  0 [   0]
  --> max chng: dpmx=   9.3575E-01 dtmpmx=   8.3796E-02

== TH FLOW =====================================================================
 Step     91 Time=  3.95000E+00 Dt=  5.00000E-02 [y] snes_conv_reason:   11
  newton =   1 [      99] linear =   133 [     12943] cuts =  0 [   0]
  --> max chng: dpmx=   9.4174E-01 dtmpmx=   8.2904E-02

== TH FLOW =====================================================================
 Step     92 Time=  4.00000E+00 Dt=  5.00000E-02 [y] snes_conv_reason:   11
  newton =   1 [     100] linear =   129 [     13072] cuts =  0 [   0]
  --> max chng: dpmx=   9.5250E-01 dtmpmx=   8.1984E-02

== TH FLOW =====================================================================
 Step     93 Time=  4.05000E+00 Dt=  5.00000E-02 [y] snes_conv_reason:   11
  newton =   1 [     101] linear =   127 [     13199] cuts =  0 [   0]
  --> max chng: dpmx=   9.6313E-01 dtmpmx=   8.1055E-02

== TH FLOW =====================================================================
 Step     94 Time=  4.10000E+00 Dt=  5.00000E-02 [y] snes_conv_reason:   11
  newton =   1 [     102] linear =   131 [     13330] cuts =  0 [   0]
  --> max chng: dpmx=   9.7379E-01 dtmpmx=   8.0221E-02

== TH FLOW =====================================================================
 Step     95 Time=  4.15000E+00 Dt=  5.00000E-02 [y] snes_conv_reason:   11
  newton =   1 [     103] linear =   131 [     13461] cuts =  0 [   0]
  --> max chng: dpmx=   9.8476E-01 dtmpmx=   7.9360E-02

== TH FLOW =====================================================================
 Step     96 Time=  4.20000E+00 Dt=  5.00000E-02 [y] snes_conv_reason:   11
  newton =   1 [     104] linear =   132 [     13593] cuts =  0 [   0]
  --> max chng: dpmx=   9.9561E-01 dtmpmx=   7.8493E-02

== TH FLOW =====================================================================
 Step     97 Time=  4.25000E+00 Dt=  5.00000E-02 [y] snes_conv_reason:    3
  newton =   1 [     105] linear =   132 [     13725] cuts =  0 [   0]
  --> max chng: dpmx=   1.0065E+00 dtmpmx=   7.7712E-02

== TH FLOW =====================================================================
 Step     98 Time=  4.30000E+00 Dt=  5.00000E-02 [y] snes_conv_reason:    3
  newton =   1 [     106] linear =   131 [     13856] cuts =  0 [   0]
  --> max chng: dpmx=   1.0173E+00 dtmpmx=   7.6905E-02

== TH FLOW =====================================================================
 Step     99 Time=  4.35000E+00 Dt=  5.00000E-02 [y] snes_conv_reason:    3
  newton =   1 [     107] linear =   125 [     13981] cuts =  0 [   0]
  --> max chng: dpmx=   1.0281E+00 dtmpmx=   7.6095E-02

== TH FLOW =====================================================================
 Step    100 Time=  4.40000E+00 Dt=  5.00000E-02 [y] snes_conv_reason:    3
  newton =   1 [     108] linear =   129 [     14110] cuts =  0 [   0]
  --> max chng: dpmx=   1.0391E+00 dtmpmx=   7.5361E-02

== TH FLOW =====================================================================
 Step    101 Time=  4.45000E+00 Dt=  5.00000E-02 [y] snes_conv_reason:    3
  newton =   1 [     109] linear =   134 [     14244] cuts =  0 [   0]
  --> max chng: dpmx=   1.0502E+00 dtmpmx=   7.4603E-02

== TH FLOW =====================================================================
 Step    102 Time=  4.50000E+00 Dt=  5.00000E-02 [y] snes_conv_reason:    3
  newton =   1 [     110] linear =   135 [     14379] cuts =  0 [   0]
  --> max chng: dpmx=   1.0612E+00 dtmpmx=   7.3844E-02

== TH FLOW =====================================================================
 Step    103 Time=  4.55000E+00 Dt=  5.00000E-02 [y] snes_conv_reason:    3
  newton =   1 [     111] linear =   134 [     14513] cuts =  0 [   0]
  --> max chng: dpmx=   1.0720E+00 dtmpmx=   7.3153E-02

== TH FLOW =====================================================================
 Step    104 Time=  4.60000E+00 Dt=  5.00000E-02 [y] snes_conv_reason:    3
  newton =   1 [     112] linear =   129 [     14642] cuts =  0 [   0]
  --> max chng: dpmx=   1.0829E+00 dtmpmx=   7.2439E-02

== TH FLOW =====================================================================
 Step    105 Time=  4.65000E+00 Dt=  5.00000E-02 [y] snes_conv_reason:    3
  newton =   1 [     113] linear =   132 [     14774] cuts =  0 [   0]
  --> max chng: dpmx=   1.0941E+00 dtmpmx=   7.1726E-02

== TH FLOW =====================================================================
 Step    106 Time=  4.70000E+00 Dt=  5.00000E-02 [y] snes_conv_reason:    3
  newton =   1 [     114] linear =   133 [     14907] cuts =  0 [   0]
  --> max chng: dpmx=   1.1053E+00 dtmpmx=   7.1075E-02

== TH FLOW =====================================================================
 Step    107 Time=  4.75000E+00 Dt=  5.00000E-02 [y] snes_conv_reason:    3
  newton =   1 [     115] linear =   128 [     15035] cuts =  0 [   0]
  --> max chng: dpmx=   1.1162E+00 dtmpmx=   7.0402E-02

== TH FLOW =====================================================================
 Step    108 Time=  4.80000E+00 Dt=  5.00000E-02 [y] snes_conv_reason:    3
  newton =   1 [     116] linear =   135 [     15170] cuts =  0 [   0]
  --> max chng: dpmx=   1.1275E+00 dtmpmx=   6.9732E-02

== TH FLOW =====================================================================
 Step    109 Time=  4.85000E+00 Dt=  5.00000E-02 [y] snes_conv_reason:    3
  newton =   1 [     117] linear =   117 [     15287] cuts =  0 [   0]
  --> max chng: dpmx=   1.1382E+00 dtmpmx=   6.9117E-02

== TH FLOW =====================================================================
 Step    110 Time=  4.90000E+00 Dt=  5.00000E-02 [y] snes_conv_reason:    3
  newton =   1 [     118] linear =   133 [     15420] cuts =  0 [   0]
  --> max chng: dpmx=   1.1496E+00 dtmpmx=   6.8480E-02

== TH FLOW =====================================================================
 Step    111 Time=  4.95000E+00 Dt=  5.00000E-02 [y] snes_conv_reason:    3
  newton =   1 [     119] linear =   133 [     15553] cuts =  0 [   0]
  --> max chng: dpmx=   1.1607E+00 dtmpmx=   6.7849E-02

== TH FLOW =====================================================================
 Step    112 Time=  5.00000E+00 Dt=  5.00000E-02 [y] snes_conv_reason:    3
  newton =   1 [     120] linear =   125 [     15678] cuts =  0 [   0]
  --> max chng: dpmx=   1.1719E+00 dtmpmx=   6.7267E-02

== TH FLOW =====================================================================
 Step    113 Time=  5.05000E+00 Dt=  5.00000E-02 [y] snes_conv_reason:    3
  newton =   1 [     121] linear =   128 [     15806] cuts =  0 [   0]
  --> max chng: dpmx=   1.1829E+00 dtmpmx=   6.6664E-02

== TH FLOW =====================================================================
 Step    114 Time=  5.10000E+00 Dt=  5.00000E-02 [y] snes_conv_reason:    3
  newton =   1 [     122] linear =   132 [     15938] cuts =  0 [   0]
  --> max chng: dpmx=   1.1941E+00 dtmpmx=   6.6068E-02

== TH FLOW =====================================================================
 Step    115 Time=  5.15000E+00 Dt=  5.00000E-02 [y] snes_conv_reason:    3
  newton =   1 [     123] linear =   119 [     16057] cuts =  0 [   0]
  --> max chng: dpmx=   1.2052E+00 dtmpmx=   6.5517E-02

== TH FLOW =====================================================================
 Step    116 Time=  5.20000E+00 Dt=  5.00000E-02 [y] snes_conv_reason:    3
  newton =   1 [     124] linear =   125 [     16182] cuts =  0 [   0]
  --> max chng: dpmx=   1.2167E+00 dtmpmx=   6.4946E-02

== TH FLOW =====================================================================
 Step    117 Time=  5.25000E+00 Dt=  5.00000E-02 [y] snes_conv_reason:    3
  newton =   1 [     125] linear =   126 [     16308] cuts =  0 [   0]
  --> max chng: dpmx=   1.2279E+00 dtmpmx=   6.4382E-02

== TH FLOW =====================================================================
 Step    118 Time=  5.30000E+00 Dt=  5.00000E-02 [y] snes_conv_reason:    3
  newton =   1 [     126] linear =   127 [     16435] cuts =  0 [   0]
  --> max chng: dpmx=   1.2390E+00 dtmpmx=   6.3859E-02

== TH FLOW =====================================================================
 Step    119 Time=  5.35000E+00 Dt=  5.00000E-02 [y] snes_conv_reason:    3
  newton =   1 [     127] linear =   127 [     16562] cuts =  0 [   0]
  --> max chng: dpmx=   1.2501E+00 dtmpmx=   6.3316E-02

== TH FLOW =====================================================================
 Step    120 Time=  5.40000E+00 Dt=  5.00000E-02 [y] snes_conv_reason:    3
  newton =   1 [     128] linear =   127 [     16689] cuts =  0 [   0]
  --> max chng: dpmx=   1.2616E+00 dtmpmx=   6.2783E-02

== TH FLOW =====================================================================
 Step    121 Time=  5.45000E+00 Dt=  5.00000E-02 [y] snes_conv_reason:    3
  newton =   1 [     129] linear =   132 [     16821] cuts =  0 [   0]
  --> max chng: dpmx=   1.2730E+00 dtmpmx=   6.2285E-02

== TH FLOW =====================================================================
 Step    122 Time=  5.50000E+00 Dt=  5.00000E-02 [y] snes_conv_reason:    3
  newton =   1 [     130] linear =   132 [     16953] cuts =  0 [   0]
  --> max chng: dpmx=   1.2841E+00 dtmpmx=   6.1769E-02

== TH FLOW =====================================================================
 Step    123 Time=  5.55000E+00 Dt=  5.00000E-02 [y] snes_conv_reason:    3
  newton =   1 [     131] linear =   126 [     17079] cuts =  0 [   0]
  --> max chng: dpmx=   1.2952E+00 dtmpmx=   6.1264E-02

== TH FLOW =====================================================================
 Step    124 Time=  5.60000E+00 Dt=  5.00000E-02 [y] snes_conv_reason:    3
  newton =   1 [     132] linear =   127 [     17206] cuts =  0 [   0]
  --> max chng: dpmx=   1.3070E+00 dtmpmx=   6.0790E-02

== TH FLOW =====================================================================
 Step    125 Time=  5.62500E+00 Dt=  2.50000E-02 [y] snes_conv_reason:   11
  newton =   1 [     133] linear =   223 [     17429] cuts =  1 [   1]
  --> max chng: dpmx=   6.5592E-01 dtmpmx=   3.0291E-02

== TH FLOW =====================================================================
 Step    126 Time=  5.65000E+00 Dt=  2.50000E-02 [y] snes_conv_reason:   11
  newton =   1 [     134] linear =   131 [     17560] cuts =  0 [   1]
  --> max chng: dpmx=   6.5947E-01 dtmpmx=   3.0197E-02

== TH FLOW =====================================================================
 Step    127 Time=  5.67500E+00 Dt=  2.50000E-02 [y] snes_conv_reason:   11
  newton =   1 [     135] linear =   124 [     17684] cuts =  0 [   1]
  --> max chng: dpmx=   6.6223E-01 dtmpmx=   3.0107E-02

== TH FLOW =====================================================================
 Step    128 Time=  5.70000E+00 Dt=  2.50000E-02 [y] snes_conv_reason:   11
  newton =   1 [     136] linear =   124 [     17808] cuts =  0 [   1]
  --> max chng: dpmx=   6.6520E-01 dtmpmx=   3.0005E-02

== TH FLOW =====================================================================
 Step    129 Time=  5.72500E+00 Dt=  2.50000E-02 [y] snes_conv_reason:   11
  newton =   1 [     137] linear =   124 [     17932] cuts =  0 [   1]
  --> max chng: dpmx=   6.6832E-01 dtmpmx=   2.9912E-02

== TH FLOW =====================================================================
 Step    130 Time=  5.75000E+00 Dt=  2.50000E-02 [y] snes_conv_reason:   11
  newton =   1 [     138] linear =   128 [     18060] cuts =  0 [   1]
  --> max chng: dpmx=   6.7111E-01 dtmpmx=   2.9824E-02

== TH FLOW =====================================================================
 Step    131 Time=  5.80000E+00 Dt=  5.00000E-02 [y] snes_conv_reason:    3
  newton =   1 [     139] linear =   130 [     18190] cuts =  0 [   1]
  --> max chng: dpmx=   1.3540E+00 dtmpmx=   5.9172E-02

== TH FLOW =====================================================================
 Step    132 Time=  5.85000E+00 Dt=  5.00000E-02 [y] snes_conv_reason:    3
  newton =   1 [     140] linear =   126 [     18316] cuts =  0 [   1]
  --> max chng: dpmx=   1.3649E+00 dtmpmx=   5.8715E-02

== TH FLOW =====================================================================
 Step    133 Time=  5.90000E+00 Dt=  5.00000E-02 [y] snes_conv_reason:    3
  newton =   1 [     141] linear =   127 [     18443] cuts =  0 [   1]
  --> max chng: dpmx=   1.3763E+00 dtmpmx=   5.8277E-02

== TH FLOW =====================================================================
 Step    134 Time=  5.95000E+00 Dt=  5.00000E-02 [y] snes_conv_reason:    3
  newton =   1 [     142] linear =   132 [     18575] cuts =  0 [   1]
  --> max chng: dpmx=   1.3878E+00 dtmpmx=   5.7823E-02

== TH FLOW =====================================================================
 Step    135 Time=  6.00000E+00 Dt=  5.00000E-02 [y] snes_conv_reason:    3
  newton =   1 [     143] linear =   131 [     18706] cuts =  0 [   1]
  --> max chng: dpmx=   1.3991E+00 dtmpmx=   5.7388E-02

== TH FLOW =====================================================================
 Step    136 Time=  6.05000E+00 Dt=  5.00000E-02 [y] snes_conv_reason:    3
  newton =   1 [     144] linear =   131 [     18837] cuts =  0 [   1]
  --> max chng: dpmx=   1.4106E+00 dtmpmx=   5.6970E-02

== TH FLOW =====================================================================
 Step    137 Time=  6.10000E+00 Dt=  5.00000E-02 [y] snes_conv_reason:    3
  newton =   1 [     145] linear =   128 [     18965] cuts =  0 [   1]
  --> max chng: dpmx=   1.4219E+00 dtmpmx=   5.6537E-02

== TH FLOW =====================================================================
 Step    138 Time=  6.15000E+00 Dt=  5.00000E-02 [y] snes_conv_reason:    3
  newton =   1 [     146] linear =   128 [     19093] cuts =  0 [   1]
  --> max chng: dpmx=   1.4332E+00 dtmpmx=   5.6123E-02

== TH FLOW =====================================================================
 Step    139 Time=  6.20000E+00 Dt=  5.00000E-02 [y] snes_conv_reason:    3
  newton =   1 [     147] linear =   128 [     19221] cuts =  0 [   1]
  --> max chng: dpmx=   1.4446E+00 dtmpmx=   5.5723E-02

== TH FLOW =====================================================================
 Step    140 Time=  6.25000E+00 Dt=  5.00000E-02 [y] snes_conv_reason:    3
  newton =   1 [     148] linear =   128 [     19349] cuts =  0 [   1]
  --> max chng: dpmx=   1.4560E+00 dtmpmx=   5.5308E-02

== TH FLOW =====================================================================
 Step    141 Time=  6.30000E+00 Dt=  5.00000E-02 [y] snes_conv_reason:    3
  newton =   1 [     149] linear =   128 [     19477] cuts =  0 [   1]
  --> max chng: dpmx=   1.4673E+00 dtmpmx=   5.4914E-02

== TH FLOW =====================================================================
 Step    142 Time=  6.35000E+00 Dt=  5.00000E-02 [y] snes_conv_reason:    3
  newton =   1 [     150] linear =   128 [     19605] cuts =  0 [   1]
  --> max chng: dpmx=   1.4785E+00 dtmpmx=   5.4531E-02

== TH FLOW =====================================================================
 Step    143 Time=  6.40000E+00 Dt=  5.00000E-02 [y] snes_conv_reason:    3
  newton =   1 [     151] linear =   133 [     19738] cuts =  0 [   1]
  --> max chng: dpmx=   1.4898E+00 dtmpmx=   5.4134E-02

== TH FLOW =====================================================================
 Step    144 Time=  6.45000E+00 Dt=  5.00000E-02 [y] snes_conv_reason:    3
  newton =   1 [     152] linear =   122 [     19860] cuts =  0 [   1]
  --> max chng: dpmx=   1.5012E+00 dtmpmx=   5.3757E-02

== TH FLOW =====================================================================
 Step    145 Time=  6.50000E+00 Dt=  5.00000E-02 [y] snes_conv_reason:    3
  newton =   1 [     153] linear =   125 [     19985] cuts =  0 [   1]
  --> max chng: dpmx=   1.5121E+00 dtmpmx=   5.3390E-02

== TH FLOW =====================================================================
 Step    146 Time=  6.55000E+00 Dt=  5.00000E-02 [y] snes_conv_reason:    3
  newton =   1 [     154] linear =   121 [     20106] cuts =  0 [   1]
  --> max chng: dpmx=   1.5235E+00 dtmpmx=   5.3010E-02

== TH FLOW =====================================================================
 Step    147 Time=  6.60000E+00 Dt=  5.00000E-02 [y] snes_conv_reason:    3
  newton =   1 [     155] linear =   120 [     20226] cuts =  0 [   1]
  --> max chng: dpmx=   1.5338E+00 dtmpmx=   5.2650E-02

== TH FLOW =====================================================================
 Step    148 Time=  6.65000E+00 Dt=  5.00000E-02 [y] snes_conv_reason:    3
  newton =   1 [     156] linear =   119 [     20345] cuts =  0 [   1]
  --> max chng: dpmx=   1.5453E+00 dtmpmx=   5.2298E-02

== TH FLOW =====================================================================
 Step    149 Time=  6.70000E+00 Dt=  5.00000E-02 [y] snes_conv_reason:    3
  newton =   1 [     157] linear =   129 [     20474] cuts =  0 [   1]
  --> max chng: dpmx=   1.5561E+00 dtmpmx=   5.1933E-02

== TH FLOW =====================================================================
 Step    150 Time=  6.75000E+00 Dt=  5.00000E-02 [y] snes_conv_reason:    3
  newton =   1 [     158] linear =   125 [     20599] cuts =  0 [   1]
  --> max chng: dpmx=   1.5664E+00 dtmpmx=   5.1589E-02

== TH FLOW =====================================================================
 Step    151 Time=  6.80000E+00 Dt=  5.00000E-02 [y] snes_conv_reason:    3
  newton =   1 [     159] linear =   113 [     20712] cuts =  0 [   1]
  --> max chng: dpmx=   1.5767E+00 dtmpmx=   5.1251E-02

== TH FLOW =====================================================================
 Step    152 Time=  6.85000E+00 Dt=  5.00000E-02 [y] snes_conv_reason:    3
  newton =   1 [     160] linear =   120 [     20832] cuts =  0 [   1]
  --> max chng: dpmx=   1.5871E+00 dtmpmx=   5.0900E-02

== TH FLOW =====================================================================
 Step    153 Time=  6.90000E+00 Dt=  5.00000E-02 [y] snes_conv_reason:    3
  newton =   1 [     161] linear =   129 [     20961] cuts =  0 [   1]
  --> max chng: dpmx=   1.5968E+00 dtmpmx=   5.0571E-02

== TH FLOW =====================================================================
 Step    154 Time=  6.95000E+00 Dt=  5.00000E-02 [y] snes_conv_reason:    3
  newton =   1 [     162] linear =   130 [     21091] cuts =  0 [   1]
  --> max chng: dpmx=   1.6063E+00 dtmpmx=   5.0246E-02

== TH FLOW =====================================================================
 Step    155 Time=  7.00000E+00 Dt=  5.00000E-02 [y] snes_conv_reason:    3
  newton =   1 [     163] linear =   128 [     21219] cuts =  0 [   1]
  --> max chng: dpmx=   1.6157E+00 dtmpmx=   4.9909E-02

== TH FLOW =====================================================================
 Step    156 Time=  7.05000E+00 Dt=  5.00000E-02 [y] snes_conv_reason:    3
  newton =   1 [     164] linear =   129 [     21348] cuts =  0 [   1]
  --> max chng: dpmx=   1.6241E+00 dtmpmx=   4.9594E-02

== TH FLOW =====================================================================
 Step    157 Time=  7.10000E+00 Dt=  5.00000E-02 [y] snes_conv_reason:    3
  newton =   1 [     165] linear =   129 [     21477] cuts =  0 [   1]
  --> max chng: dpmx=   1.6325E+00 dtmpmx=   4.9281E-02

== TH FLOW =====================================================================
 Step    158 Time=  7.15000E+00 Dt=  5.00000E-02 [y] snes_conv_reason:    3
  newton =   1 [     166] linear =   122 [     21599] cuts =  0 [   1]
  --> max chng: dpmx=   1.6404E+00 dtmpmx=   4.8957E-02

== TH FLOW =====================================================================
 Step    159 Time=  7.20000E+00 Dt=  5.00000E-02 [y] snes_conv_reason:    3
  newton =   1 [     167] linear =   127 [     21726] cuts =  0 [   1]
  --> max chng: dpmx=   1.6471E+00 dtmpmx=   4.8655E-02

== TH FLOW =====================================================================
 Step    160 Time=  7.25000E+00 Dt=  5.00000E-02 [y] snes_conv_reason:    3
  newton =   1 [     168] linear =   127 [     21853] cuts =  0 [   1]
  --> max chng: dpmx=   1.6535E+00 dtmpmx=   4.8354E-02

== TH FLOW =====================================================================
 Step    161 Time=  7.30000E+00 Dt=  5.00000E-02 [y] snes_conv_reason:    3
  newton =   1 [     169] linear =   126 [     21979] cuts =  0 [   1]
  --> max chng: dpmx=   1.6587E+00 dtmpmx=   4.8041E-02

== TH FLOW =====================================================================
 Step    162 Time=  7.35000E+00 Dt=  5.00000E-02 [y] snes_conv_reason:    3
  newton =   1 [     170] linear =   126 [     22105] cuts =  0 [   1]
  --> max chng: dpmx=   1.6636E+00 dtmpmx=   4.7751E-02

== TH FLOW =====================================================================
 Step    163 Time=  7.40000E+00 Dt=  5.00000E-02 [y] snes_conv_reason:    3
  newton =   1 [     171] linear =   123 [     22228] cuts =  0 [   1]
  --> max chng: dpmx=   1.6669E+00 dtmpmx=   4.7461E-02

== TH FLOW =====================================================================
 Step    164 Time=  7.45000E+00 Dt=  5.00000E-02 [y] snes_conv_reason:    3
  newton =   1 [     172] linear =   126 [     22354] cuts =  0 [   1]
  --> max chng: dpmx=   1.6694E+00 dtmpmx=   4.7160E-02

== TH FLOW =====================================================================
 Step    165 Time=  7.50000E+00 Dt=  5.00000E-02 [y] snes_conv_reason:    3
  newton =   1 [     173] linear =   119 [     22473] cuts =  0 [   1]
  --> max chng: dpmx=   1.6707E+00 dtmpmx=   4.6882E-02

== TH FLOW =====================================================================
 Step    166 Time=  7.55000E+00 Dt=  5.00000E-02 [y] snes_conv_reason:    3
  newton =   1 [     174] linear =   119 [     22592] cuts =  0 [   1]
  --> max chng: dpmx=   1.6703E+00 dtmpmx=   4.6602E-02

== TH FLOW =====================================================================
 Step    167 Time=  7.60000E+00 Dt=  5.00000E-02 [y] snes_conv_reason:    3
  newton =   1 [     175] linear =   125 [     22717] cuts =  0 [   1]
  --> max chng: dpmx=   1.6687E+00 dtmpmx=   4.6311E-02

== TH FLOW =====================================================================
 Step    168 Time=  7.65000E+00 Dt=  5.00000E-02 [y] snes_conv_reason:    3
  newton =   1 [     176] linear =   125 [     22842] cuts =  0 [   1]
  --> max chng: dpmx=   1.6655E+00 dtmpmx=   4.6044E-02

== TH FLOW =====================================================================
 Step    169 Time=  7.70000E+00 Dt=  5.00000E-02 [y] snes_conv_reason:    3
  newton =   1 [     177] linear =   125 [     22967] cuts =  0 [   1]
  --> max chng: dpmx=   1.6603E+00 dtmpmx=   4.5774E-02

== TH FLOW =====================================================================
 Step    170 Time=  7.75000E+00 Dt=  5.00000E-02 [y] snes_conv_reason:    3
  newton =   1 [     178] linear =   122 [     23089] cuts =  0 [   1]
  --> max chng: dpmx=   1.6538E+00 dtmpmx=   4.5493E-02

== TH FLOW =====================================================================
 Step    171 Time=  7.80000E+00 Dt=  5.00000E-02 [y] snes_conv_reason:    3
  newton =   1 [     179] linear =   125 [     23214] cuts =  0 [   1]
  --> max chng: dpmx=   1.6451E+00 dtmpmx=   4.5236E-02

== TH FLOW =====================================================================
 Step    172 Time=  7.85000E+00 Dt=  5.00000E-02 [y] snes_conv_reason:    3
  newton =   1 [     180] linear =   124 [     23338] cuts =  0 [   1]
  --> max chng: dpmx=   1.6341E+00 dtmpmx=   4.4975E-02

== TH FLOW =====================================================================
 Step    173 Time=  7.90000E+00 Dt=  5.00000E-02 [y] snes_conv_reason:    3
  newton =   1 [     181] linear =   129 [     23467] cuts =  0 [   1]
  --> max chng: dpmx=   1.6217E+00 dtmpmx=   4.4703E-02

== TH FLOW =====================================================================
 Step    174 Time=  7.95000E+00 Dt=  5.00000E-02 [y] snes_conv_reason:    3
  newton =   1 [     182] linear =   128 [     23595] cuts =  0 [   1]
  --> max chng: dpmx=   1.6062E+00 dtmpmx=   4.4456E-02

== TH FLOW =====================================================================
 Step    175 Time=  8.00000E+00 Dt=  5.00000E-02 [y] snes_conv_reason:    3
  newton =   1 [     183] linear =   114 [     23709] cuts =  0 [   1]
  --> max chng: dpmx=   1.5893E+00 dtmpmx=   4.4204E-02

== TH FLOW =====================================================================
 Step    176 Time=  8.05000E+00 Dt=  5.00000E-02 [y] snes_conv_reason:    3
  newton =   1 [     184] linear =   129 [     23838] cuts =  0 [   1]
  --> max chng: dpmx=   1.5695E+00 dtmpmx=   4.3941E-02

== TH FLOW =====================================================================
 Step    177 Time=  8.10000E+00 Dt=  5.00000E-02 [y] snes_conv_reason:    3
  newton =   1 [     185] linear =   123 [     23961] cuts =  0 [   1]
  --> max chng: dpmx=   1.5475E+00 dtmpmx=   4.3703E-02

== TH FLOW =====================================================================
 Step    178 Time=  8.15000E+00 Dt=  5.00000E-02 [y] snes_conv_reason:    3
  newton =   1 [     186] linear =   127 [     24088] cuts =  0 [   1]
  --> max chng: dpmx=   1.5232E+00 dtmpmx=   4.3459E-02

== TH FLOW =====================================================================
 Step    179 Time=  8.20000E+00 Dt=  5.00000E-02 [y] snes_conv_reason:    3
  newton =   1 [     187] linear =   127 [     24215] cuts =  0 [   1]
  --> max chng: dpmx=   1.4962E+00 dtmpmx=   4.3205E-02

== TH FLOW =====================================================================
 Step    180 Time=  8.25000E+00 Dt=  5.00000E-02 [y] snes_conv_reason:    3
  newton =   1 [     188] linear =   128 [     24343] cuts =  0 [   1]
  --> max chng: dpmx=   1.4673E+00 dtmpmx=   4.2976E-02

== TH FLOW =====================================================================
 Step    181 Time=  8.30000E+00 Dt=  5.00000E-02 [y] snes_conv_reason:    3
  newton =   1 [     189] linear =   125 [     24468] cuts =  0 [   1]
  --> max chng: dpmx=   1.4361E+00 dtmpmx=   4.2739E-02

== TH FLOW =====================================================================
 Step    182 Time=  8.35000E+00 Dt=  5.00000E-02 [y] snes_conv_reason:    3
  newton =   1 [     190] linear =   127 [     24595] cuts =  0 [   1]
  --> max chng: dpmx=   1.4022E+00 dtmpmx=   4.2493E-02

== TH FLOW =====================================================================
 Step    183 Time=  8.40000E+00 Dt=  5.00000E-02 [y] snes_conv_reason:    3
  newton =   1 [     191] linear =   127 [     24722] cuts =  0 [   1]
  --> max chng: dpmx=   1.3666E+00 dtmpmx=   4.2272E-02

== TH FLOW =====================================================================
 Step    184 Time=  8.45000E+00 Dt=  5.00000E-02 [y] snes_conv_reason:    3
  newton =   1 [     192] linear =   131 [     24853] cuts =  0 [   1]
  --> max chng: dpmx=   1.3286E+00 dtmpmx=   4.2042E-02

== TH FLOW =====================================================================
 Step    185 Time=  8.50000E+00 Dt=  5.00000E-02 [y] snes_conv_reason:    3
  newton =   1 [     193] linear =   130 [     24983] cuts =  0 [   1]
  --> max chng: dpmx=   1.2890E+00 dtmpmx=   4.1804E-02

== TH FLOW =====================================================================
 Step    186 Time=  8.55000E+00 Dt=  5.00000E-02 [y] snes_conv_reason:    3
  newton =   1 [     194] linear =   128 [     25111] cuts =  0 [   1]
  --> max chng: dpmx=   1.2475E+00 dtmpmx=   4.1591E-02

== TH FLOW =====================================================================
 Step    187 Time=  8.60000E+00 Dt=  5.00000E-02 [y] snes_conv_reason:    3
  newton =   1 [     195] linear =   130 [     25241] cuts =  0 [   1]
  --> max chng: dpmx=   1.2047E+00 dtmpmx=   4.1368E-02

== TH FLOW =====================================================================
 Step    188 Time=  8.65000E+00 Dt=  5.00000E-02 [y] snes_conv_reason:    3
  newton =   1 [     196] linear =   121 [     25362] cuts =  0 [   1]
  --> max chng: dpmx=   1.1601E+00 dtmpmx=   4.1138E-02

== TH FLOW =====================================================================
 Step    189 Time=  8.70000E+00 Dt=  5.00000E-02 [y] snes_conv_reason:    3
  newton =   1 [     197] linear =   128 [     25490] cuts =  0 [   1]
  --> max chng: dpmx=   1.1146E+00 dtmpmx=   4.0931E-02

== TH FLOW =====================================================================
 Step    190 Time=  8.75000E+00 Dt=  5.00000E-02 [y] snes_conv_reason:    3
  newton =   1 [     198] linear =   131 [     25621] cuts =  0 [   1]
  --> max chng: dpmx=   1.0682E+00 dtmpmx=   4.0715E-02

== TH FLOW =====================================================================
 Step    191 Time=  8.80000E+00 Dt=  5.00000E-02 [y] snes_conv_reason:    3
  newton =   1 [     199] linear =   128 [     25749] cuts =  0 [   1]
  --> max chng: dpmx=   1.0209E+00 dtmpmx=   4.0493E-02

== TH FLOW =====================================================================
 Step    192 Time=  8.85000E+00 Dt=  5.00000E-02 [y] snes_conv_reason:   11
  newton =   1 [     200] linear =   130 [     25879] cuts =  0 [   1]
  --> max chng: dpmx=   9.7328E-01 dtmpmx=   4.0286E-02

== TH FLOW =====================================================================
 Step    193 Time=  8.90000E+00 Dt=  5.00000E-02 [y] snes_conv_reason:   11
  newton =   1 [     201] linear =   128 [     26007] cuts =  0 [   1]
  --> max chng: dpmx=   9.2534E-01 dtmpmx=   4.0010E-02

== TH FLOW =====================================================================
 Step    194 Time=  8.95000E+00 Dt=  5.00000E-02 [y] snes_conv_reason:   11
  newton =   1 [     202] linear =   130 [     26137] cuts =  0 [   1]
  --> max chng: dpmx=   8.7757E-01 dtmpmx=   3.9573E-02

== TH FLOW =====================================================================
 Step    195 Time=  9.00000E+00 Dt=  5.00000E-02 [y] snes_conv_reason:   11
  newton =   1 [     203] linear =   130 [     26267] cuts =  0 [   1]
  --> max chng: dpmx=   8.2964E-01 dtmpmx=   3.8981E-02

== TH FLOW =====================================================================
 Step    196 Time=  9.05000E+00 Dt=  5.00000E-02 [y] snes_conv_reason:   11
  newton =   1 [     204] linear =   129 [     26396] cuts =  0 [   1]
  --> max chng: dpmx=   7.8253E-01 dtmpmx=   3.8244E-02

== TH FLOW =====================================================================
 Step    197 Time=  9.10000E+00 Dt=  5.00000E-02 [y] snes_conv_reason:   11
  newton =   1 [     205] linear =   133 [     26529] cuts =  0 [   1]
  --> max chng: dpmx=   7.3599E-01 dtmpmx=   3.7371E-02

== TH FLOW =====================================================================
 Step    198 Time=  9.15000E+00 Dt=  5.00000E-02 [y] snes_conv_reason:   11
  newton =   1 [     206] linear =   130 [     26659] cuts =  0 [   1]
  --> max chng: dpmx=   6.9026E-01 dtmpmx=   3.6374E-02

== TH FLOW =====================================================================
 Step    199 Time=  9.20000E+00 Dt=  5.00000E-02 [y] snes_conv_reason:   11
  newton =   1 [     207] linear =   132 [     26791] cuts =  0 [   1]
  --> max chng: dpmx=   6.4541E-01 dtmpmx=   3.5349E-02

== TH FLOW =====================================================================
 Step    200 Time=  9.25000E+00 Dt=  5.00000E-02 [y] snes_conv_reason:   11
  newton =   1 [     208] linear =   131 [     26922] cuts =  0 [   1]
  --> max chng: dpmx=   6.0209E-01 dtmpmx=   3.4241E-02

== TH FLOW =====================================================================
 Step    201 Time=  9.30000E+00 Dt=  5.00000E-02 [y] snes_conv_reason:   11
  newton =   1 [     209] linear =   133 [     27055] cuts =  0 [   1]
  --> max chng: dpmx=   5.5985E-01 dtmpmx=   3.3042E-02

== TH FLOW =====================================================================
 Step    202 Time=  9.35000E+00 Dt=  5.00000E-02 [y] snes_conv_reason:   11
  newton =   1 [     210] linear =   130 [     27185] cuts =  0 [   1]
  --> max chng: dpmx=   5.1930E-01 dtmpmx=   3.1765E-02

== TH FLOW =====================================================================
 Step    203 Time=  9.40000E+00 Dt=  5.00000E-02 [y] snes_conv_reason:   11
  newton =   1 [     211] linear =   129 [     27314] cuts =  0 [   1]
  --> max chng: dpmx=   4.8017E-01 dtmpmx=   3.0424E-02

== TH FLOW =====================================================================
 Step    204 Time=  9.45000E+00 Dt=  5.00000E-02 [y] snes_conv_reason:   11
  newton =   1 [     212] linear =   132 [     27446] cuts =  0 [   1]
  --> max chng: dpmx=   4.4280E-01 dtmpmx=   2.9033E-02

== TH FLOW =====================================================================
 Step    205 Time=  9.50000E+00 Dt=  5.00000E-02 [y] snes_conv_reason:   11
  newton =   1 [     213] linear =   135 [     27581] cuts =  0 [   1]
  --> max chng: dpmx=   4.0724E-01 dtmpmx=   2.7605E-02

== TH FLOW =====================================================================
 Step    206 Time=  9.55000E+00 Dt=  5.00000E-02 [y] snes_conv_reason:   11
  newton =   1 [     214] linear =   135 [     27716] cuts =  0 [   1]
  --> max chng: dpmx=   3.7344E-01 dtmpmx=   2.6155E-02

== TH FLOW =====================================================================
 Step    207 Time=  9.60000E+00 Dt=  5.00000E-02 [y] snes_conv_reason:   11
  newton =   1 [     215] linear =   133 [     27849] cuts =  0 [   1]
  --> max chng: dpmx=   3.4145E-01 dtmpmx=   2.4694E-02

== TH FLOW =====================================================================
 Step    208 Time=  9.65000E+00 Dt=  5.00000E-02 [y] snes_conv_reason:   11
  newton =   1 [     216] linear =   134 [     27983] cuts =  0 [   1]
  --> max chng: dpmx=   3.1140E-01 dtmpmx=   2.3233E-02

== TH FLOW =====================================================================
 Step    209 Time=  9.70000E+00 Dt=  5.00000E-02 [y] snes_conv_reason:   11
  newton =   1 [     217] linear =   134 [     28117] cuts =  0 [   1]
  --> max chng: dpmx=   2.8313E-01 dtmpmx=   2.1785E-02

== TH FLOW =====================================================================
 Step    210 Time=  9.75000E+00 Dt=  5.00000E-02 [y] snes_conv_reason:   11
  newton =   1 [     218] linear =   135 [     28252] cuts =  0 [   1]
  --> max chng: dpmx=   2.5672E-01 dtmpmx=   2.0358E-02

== TH FLOW =====================================================================
 Step    211 Time=  9.80000E+00 Dt=  5.00000E-02 [y] snes_conv_reason:   11
  newton =   1 [     219] linear =   135 [     28387] cuts =  0 [   1]
  --> max chng: dpmx=   2.3214E-01 dtmpmx=   1.8962E-02

== TH FLOW =====================================================================
 Step    212 Time=  9.85000E+00 Dt=  5.00000E-02 [y] snes_conv_reason:   11
  newton =   1 [     220] linear =   136 [     28523] cuts =  0 [   1]
  --> max chng: dpmx=   2.0933E-01 dtmpmx=   1.7604E-02

== TH FLOW =====================================================================
 Step    213 Time=  9.90000E+00 Dt=  5.00000E-02 [y] snes_conv_reason:   11
  newton =   1 [     221] linear =   136 [     28659] cuts =  0 [   1]
  --> max chng: dpmx=   1.8820E-01 dtmpmx=   1.6290E-02

== TH FLOW =====================================================================
 Step    214 Time=  9.95000E+00 Dt=  5.00000E-02 [y] snes_conv_reason:   11
  newton =   1 [     222] linear =   136 [     28795] cuts =  0 [   1]
  --> max chng: dpmx=   1.6872E-01 dtmpmx=   1.5027E-02

== TH FLOW =====================================================================
 Step    215 Time=  1.00000E+01 Dt=  5.00000E-02 [y] snes_conv_reason:   11
  newton =   1 [     223] linear =   136 [     28931] cuts =  0 [   1]
  --> max chng: dpmx=   1.5088E-01 dtmpmx=   1.3818E-02

== TH FLOW =====================================================================
 Step    216 Time=  1.00500E+01 Dt=  5.00000E-02 [y] snes_conv_reason:   11
  newton =   1 [     224] linear =   137 [     29068] cuts =  0 [   1]
  --> max chng: dpmx=   1.3451E-01 dtmpmx=   1.2667E-02

== TH FLOW =====================================================================
 Step    217 Time=  1.01000E+01 Dt=  5.00000E-02 [y] snes_conv_reason:   11
  newton =   1 [     225] linear =   137 [     29205] cuts =  0 [   1]
  --> max chng: dpmx=   1.1959E-01 dtmpmx=   1.1576E-02

== TH FLOW =====================================================================
 Step    218 Time=  1.01500E+01 Dt=  5.00000E-02 [y] snes_conv_reason:   11
  newton =   1 [     226] linear =   136 [     29341] cuts =  0 [   1]
  --> max chng: dpmx=   1.0602E-01 dtmpmx=   1.0546E-02

== TH FLOW =====================================================================
 Step    219 Time=  1.02000E+01 Dt=  5.00000E-02 [y] snes_conv_reason:   11
  newton =   1 [     227] linear =   138 [     29479] cuts =  0 [   1]
  --> max chng: dpmx=   9.3725E-02 dtmpmx=   9.5799E-03

== TH FLOW =====================================================================
 Step    220 Time=  1.02500E+01 Dt=  5.00000E-02 [y] snes_conv_reason:   11
  newton =   1 [     228] linear =   138 [     29617] cuts =  0 [   1]
  --> max chng: dpmx=   8.2605E-02 dtmpmx=   8.6760E-03

== TH FLOW =====================================================================
 Step    221 Time=  1.03000E+01 Dt=  5.00000E-02 [y] snes_conv_reason:   11
  newton =   1 [     229] linear =   139 [     29756] cuts =  0 [   1]
  --> max chng: dpmx=   7.2613E-02 dtmpmx=   7.8340E-03

== TH FLOW =====================================================================
 Step    222 Time=  1.03500E+01 Dt=  5.00000E-02 [y] snes_conv_reason:   11
  newton =   1 [     230] linear =   139 [     29895] cuts =  0 [   1]
  --> max chng: dpmx=   6.3630E-02 dtmpmx=   7.0530E-03

== TH FLOW =====================================================================
 Step    223 Time=  1.04000E+01 Dt=  5.00000E-02 [y] snes_conv_reason:   11
  newton =   1 [     231] linear =   143 [     30038] cuts =  0 [   1]
  --> max chng: dpmx=   5.5619E-02 dtmpmx=   6.3313E-03

== TH FLOW =====================================================================
 Step    224 Time=  1.04500E+01 Dt=  5.00000E-02 [y] snes_conv_reason:   11
  newton =   1 [     232] linear =   139 [     30177] cuts =  0 [   1]
  --> max chng: dpmx=   4.8438E-02 dtmpmx=   5.6669E-03

== TH FLOW =====================================================================
 Step    225 Time=  1.05000E+01 Dt=  5.00000E-02 [y] snes_conv_reason:   11
  newton =   1 [     233] linear =   137 [     30314] cuts =  0 [   1]
  --> max chng: dpmx=   4.2073E-02 dtmpmx=   5.0574E-03

== TH FLOW =====================================================================
 Step    226 Time=  1.05500E+01 Dt=  5.00000E-02 [y] snes_conv_reason:   11
  newton =   1 [     234] linear =   137 [     30451] cuts =  0 [   1]
  --> max chng: dpmx=   3.6426E-02 dtmpmx=   4.5004E-03

== TH FLOW =====================================================================
 Step    227 Time=  1.06000E+01 Dt=  5.00000E-02 [y] snes_conv_reason:   11
  newton =   1 [     235] linear =   133 [     30584] cuts =  0 [   1]
  --> max chng: dpmx=   3.1439E-02 dtmpmx=   3.9931E-03

== TH FLOW =====================================================================
 Step    228 Time=  1.06500E+01 Dt=  5.00000E-02 [y] snes_conv_reason:   11
  newton =   1 [     236] linear =   136 [     30720] cuts =  0 [   1]
  --> max chng: dpmx=   2.7052E-02 dtmpmx=   3.5325E-03

== TH FLOW =====================================================================
 Step    229 Time=  1.07000E+01 Dt=  5.00000E-02 [y] snes_conv_reason:   11
  newton =   1 [     237] linear =   136 [     30856] cuts =  0 [   1]
  --> max chng: dpmx=   2.3193E-02 dtmpmx=   3.1159E-03

== TH FLOW =====================================================================
 Step    230 Time=  1.07500E+01 Dt=  5.00000E-02 [y] snes_conv_reason:   11
  newton =   1 [     238] linear =   137 [     30993] cuts =  0 [   1]
  --> max chng: dpmx=   1.9818E-02 dtmpmx=   2.7403E-03

== TH FLOW =====================================================================
 Step    231 Time=  1.08000E+01 Dt=  5.00000E-02 [y] snes_conv_reason:   11
  newton =   1 [     239] linear =   137 [     31130] cuts =  0 [   1]
  --> max chng: dpmx=   1.6875E-02 dtmpmx=   2.4026E-03

== TH FLOW =====================================================================
 Step    232 Time=  1.08500E+01 Dt=  5.00000E-02 [y] snes_conv_reason:   11
  newton =   1 [     240] linear =   139 [     31269] cuts =  0 [   1]
  --> max chng: dpmx=   1.4316E-02 dtmpmx=   2.1001E-03

== TH FLOW =====================================================================
 Step    233 Time=  1.09000E+01 Dt=  5.00000E-02 [y] snes_conv_reason:   11
  newton =   1 [     241] linear =   141 [     31410] cuts =  0 [   1]
  --> max chng: dpmx=   1.2099E-02 dtmpmx=   1.8298E-03

== TH FLOW =====================================================================
 Step    234 Time=  1.09500E+01 Dt=  5.00000E-02 [y] snes_conv_reason:   11
  newton =   1 [     242] linear =   142 [     31552] cuts =  0 [   1]
  --> max chng: dpmx=   1.0183E-02 dtmpmx=   1.5892E-03

== TH FLOW =====================================================================
 Step    235 Time=  1.10000E+01 Dt=  5.00000E-02 [y] snes_conv_reason:   11
  newton =   1 [     243] linear =   140 [     31692] cuts =  0 [   1]
  --> max chng: dpmx=   8.5318E-03 dtmpmx=   1.3755E-03

== TH FLOW =====================================================================
 Step    236 Time=  1.10500E+01 Dt=  5.00000E-02 [y] snes_conv_reason:   11
  newton =   1 [     244] linear =   135 [     31827] cuts =  0 [   1]
  --> max chng: dpmx=   7.1178E-03 dtmpmx=   1.1864E-03

== TH FLOW =====================================================================
 Step    237 Time=  1.11000E+01 Dt=  5.00000E-02 [y] snes_conv_reason:   11
  newton =   1 [     245] linear =   136 [     31963] cuts =  0 [   1]
  --> max chng: dpmx=   5.9085E-03 dtmpmx=   1.0195E-03

== TH FLOW =====================================================================
 Step    238 Time=  1.11500E+01 Dt=  5.00000E-02 [y] snes_conv_reason:   11
  newton =   1 [     246] linear =   138 [     32101] cuts =  0 [   1]
  --> max chng: dpmx=   4.8793E-03 dtmpmx=   8.7253E-04

== TH FLOW =====================================================================
 Step    239 Time=  1.12000E+01 Dt=  5.00000E-02 [y] snes_conv_reason:   11
  newton =   1 [     247] linear =   139 [     32240] cuts =  0 [   1]
  --> max chng: dpmx=   4.1165E-03 dtmpmx=   7.4358E-04

== TH FLOW =====================================================================
 Step    240 Time=  1.12500E+01 Dt=  5.00000E-02 [y] snes_conv_reason:   11
  newton =   1 [     248] linear =   140 [     32380] cuts =  0 [   1]
  --> max chng: dpmx=   4.4293E-03 dtmpmx=   6.3074E-04

== TH FLOW =====================================================================
 Step    241 Time=  1.13000E+01 Dt=  5.00000E-02 [y] snes_conv_reason:   11
  newton =   1 [     249] linear =   137 [     32517] cuts =  0 [   1]
  --> max chng: dpmx=   4.7040E-03 dtmpmx=   5.3224E-04

== TH FLOW =====================================================================
 Step    242 Time=  1.13500E+01 Dt=  5.00000E-02 [y] snes_conv_reason:   11
  newton =   1 [     250] linear =   136 [     32653] cuts =  0 [   1]
  --> max chng: dpmx=   4.9461E-03 dtmpmx=   4.4652E-04

== TH FLOW =====================================================================
 Step    243 Time=  1.14000E+01 Dt=  5.00000E-02 [y] snes_conv_reason:   11
  newton =   1 [     251] linear =   134 [     32787] cuts =  0 [   1]
  --> max chng: dpmx=   5.1567E-03 dtmpmx=   3.7210E-04

== TH FLOW =====================================================================
 Step    244 Time=  1.14500E+01 Dt=  5.00000E-02 [y] snes_conv_reason:   11
  newton =   1 [     252] linear =   138 [     32925] cuts =  0 [   1]
  --> max chng: dpmx=   5.3402E-03 dtmpmx=   3.0767E-04

== TH FLOW =====================================================================
 Step    245 Time=  1.15000E+01 Dt=  5.00000E-02 [y] snes_conv_reason:   11
  newton =   1 [     253] linear =   141 [     33066] cuts =  0 [   1]
  --> max chng: dpmx=   5.4991E-03 dtmpmx=   2.5203E-04

== TH FLOW =====================================================================
 Step    246 Time=  1.15500E+01 Dt=  5.00000E-02 [y] snes_conv_reason:   11
  newton =   1 [     254] linear =   138 [     33204] cuts =  0 [   1]
  --> max chng: dpmx=   5.6365E-03 dtmpmx=   2.0411E-04

== TH FLOW =====================================================================
 Step    247 Time=  1.16000E+01 Dt=  5.00000E-02 [y] snes_conv_reason:   11
  newton =   1 [     255] linear =   122 [     33326] cuts =  0 [   1]
  --> max chng: dpmx=   5.7547E-03 dtmpmx=   1.6294E-04

== TH FLOW =====================================================================
 Step    248 Time=  1.16500E+01 Dt=  5.00000E-02 [y] snes_conv_reason:   11
  newton =   1 [     256] linear =   134 [     33460] cuts =  0 [   1]
  --> max chng: dpmx=   5.8570E-03 dtmpmx=   1.2766E-04

== TH FLOW =====================================================================
 Step    249 Time=  1.17000E+01 Dt=  5.00000E-02 [y] snes_conv_reason:   11
  newton =   1 [     257] linear =   124 [     33584] cuts =  0 [   1]
  --> max chng: dpmx=   5.9444E-03 dtmpmx=   9.7487E-05

== TH FLOW =====================================================================
 Step    250 Time=  1.17500E+01 Dt=  5.00000E-02 [y] snes_conv_reason:   11
  newton =   1 [     258] linear =   128 [     33712] cuts =  0 [   1]
  --> max chng: dpmx=   6.0194E-03 dtmpmx=   8.2386E-05

== TH FLOW =====================================================================
 Step    251 Time=  1.18000E+01 Dt=  5.00000E-02 [y] snes_conv_reason:   11
  newton =   1 [     259] linear =   134 [     33846] cuts =  0 [   1]
  --> max chng: dpmx=   6.0842E-03 dtmpmx=   8.2219E-05

== TH FLOW =====================================================================
 Step    252 Time=  1.18500E+01 Dt=  5.00000E-02 [y] snes_conv_reason:   11
  newton =   1 [     260] linear =   115 [     33961] cuts =  0 [   1]
  --> max chng: dpmx=   6.1390E-03 dtmpmx=   8.2052E-05

== TH FLOW =====================================================================
 Step    253 Time=  1.19000E+01 Dt=  5.00000E-02 [y] snes_conv_reason:   11
  newton =   1 [     261] linear =   118 [     34079] cuts =  0 [   1]
  --> max chng: dpmx=   6.1864E-03 dtmpmx=   8.1891E-05

== TH FLOW =====================================================================
 Step    254 Time=  1.19500E+01 Dt=  5.00000E-02 [y] snes_conv_reason:   11
  newton =   1 [     262] linear =   127 [     34206] cuts =  0 [   1]
  --> max chng: dpmx=   6.2252E-03 dtmpmx=   8.1728E-05

== TH FLOW =====================================================================
 Step    255 Time=  1.20000E+01 Dt=  5.00000E-02 [y] snes_conv_reason:   11
  newton =   1 [     263] linear =   125 [     34331] cuts =  0 [   1]
  --> max chng: dpmx=   6.2596E-03 dtmpmx=   8.1571E-05

== TH FLOW =====================================================================
 Step    256 Time=  1.20500E+01 Dt=  5.00000E-02 [y] snes_conv_reason:   11
  newton =   1 [     264] linear =   122 [     34453] cuts =  0 [   1]
  --> max chng: dpmx=   6.2877E-03 dtmpmx=   8.1414E-05

== TH FLOW =====================================================================
 Step    257 Time=  1.21000E+01 Dt=  5.00000E-02 [y] snes_conv_reason:   11
  newton =   1 [     265] linear =   121 [     34574] cuts =  0 [   1]
  --> max chng: dpmx=   6.3134E-03 dtmpmx=   8.1260E-05

[...]
 Step    499 Time=  2.40500E+01 Dt=  5.00000E-02 [y] snes_conv_reason:   11
  newton =   1 [     507] linear =   133 [     64832] cuts =  0 [   2]
  --> max chng: dpmx=   6.0989E-06 dtmpmx=   1.7895E-07

== TH FLOW =====================================================================
 Step    500 Time=  2.41000E+01 Dt=  5.00000E-02 [y] snes_conv_reason:   11
  newton =   1 [     508] linear =   133 [     64965] cuts =  0 [   2]
  --> max chng: dpmx=   5.8863E-06 dtmpmx=   1.7447E-07

== TH FLOW =====================================================================
 Step    501 Time=  2.41500E+01 Dt=  5.00000E-02 [y] snes_conv_reason:   11
  newton =   1 [     509] linear =   131 [     65096] cuts =  0 [   2]
  --> max chng: dpmx=   5.6778E-06 dtmpmx=   1.7002E-07

== TH FLOW =====================================================================
 Step    502 Time=  2.42000E+01 Dt=  5.00000E-02 [y] snes_conv_reason:   11
  newton =   1 [     510] linear =   124 [     65220] cuts =  0 [   2]
  --> max chng: dpmx=   5.4741E-06 dtmpmx=   1.6565E-07

== TH FLOW =====================================================================
 Step    503 Time=  2.42500E+01 Dt=  5.00000E-02 [y] snes_conv_reason:   11
  newton =   1 [     511] linear =   129 [     65349] cuts =  0 [   2]
  --> max chng: dpmx=   5.2745E-06 dtmpmx=   1.6123E-07

== TH FLOW =====================================================================
 Step    504 Time=  2.43000E+01 Dt=  5.00000E-02 [y] snes_conv_reason:   11
  newton =   1 [     512] linear =   131 [     65480] cuts =  0 [   2]
  --> max chng: dpmx=   5.0791E-06 dtmpmx=   1.5693E-07

== TH FLOW =====================================================================
 Step    505 Time=  2.43500E+01 Dt=  5.00000E-02 [y] snes_conv_reason:   11
  newton =   1 [     513] linear =   124 [     65604] cuts =  0 [   2]
  --> max chng: dpmx=   4.8885E-06 dtmpmx=   1.5262E-07

== TH FLOW =====================================================================
 Step    506 Time=  2.44000E+01 Dt=  5.00000E-02 [y] snes_conv_reason:   11
  newton =   1 [     514] linear =   129 [     65733] cuts =  0 [   2]
  --> max chng: dpmx=   4.7036E-06 dtmpmx=   1.4834E-07

== TH FLOW =====================================================================
 Step    507 Time=  2.44500E+01 Dt=  5.00000E-02 [y] snes_conv_reason:   11
  newton =   1 [     515] linear =   129 [     65862] cuts =  0 [   2]
  --> max chng: dpmx=   4.5205E-06 dtmpmx=   1.4419E-07

== TH FLOW =====================================================================
 Step    508 Time=  2.45000E+01 Dt=  5.00000E-02 [y] snes_conv_reason:   11
  newton =   1 [     516] linear =   130 [     65992] cuts =  0 [   2]
  --> max chng: dpmx=   4.3439E-06 dtmpmx=   1.3997E-07

== TH FLOW =====================================================================
 Step    509 Time=  2.45500E+01 Dt=  5.00000E-02 [y] snes_conv_reason:   11
  newton =   1 [     517] linear =   130 [     66122] cuts =  0 [   2]
  --> max chng: dpmx=   4.1709E-06 dtmpmx=   1.3583E-07

== TH FLOW =====================================================================
 Step    510 Time=  2.46000E+01 Dt=  5.00000E-02 [y] snes_conv_reason:   11
  newton =   1 [     518] linear =   130 [     66252] cuts =  0 [   2]
  --> max chng: dpmx=   4.0028E-06 dtmpmx=   1.3179E-07

== TH FLOW =====================================================================
 Step    511 Time=  2.46500E+01 Dt=  5.00000E-02 [y] snes_conv_reason:   11
  newton =   1 [     519] linear =   127 [     66379] cuts =  0 [   2]
  --> max chng: dpmx=   3.8396E-06 dtmpmx=   1.2774E-07

== TH FLOW =====================================================================
 Step    512 Time=  2.47000E+01 Dt=  5.00000E-02 [y] snes_conv_reason:   11
  newton =   1 [     520] linear =   130 [     66509] cuts =  0 [   2]
  --> max chng: dpmx=   3.6788E-06 dtmpmx=   1.2376E-07

== TH FLOW =====================================================================
 Step    513 Time=  2.47500E+01 Dt=  5.00000E-02 [y] snes_conv_reason:   11
  newton =   1 [     521] linear =   131 [     66640] cuts =  0 [   2]
  --> max chng: dpmx=   3.5245E-06 dtmpmx=   1.1984E-07

== TH FLOW =====================================================================
 Step    514 Time=  2.48000E+01 Dt=  5.00000E-02 [y] snes_conv_reason:   11
  newton =   1 [     522] linear =   131 [     66771] cuts =  0 [   2]
  --> max chng: dpmx=   3.3737E-06 dtmpmx=   1.1599E-07

== TH FLOW =====================================================================
 Step    515 Time=  2.48500E+01 Dt=  5.00000E-02 [y] snes_conv_reason:   11
  newton =   1 [     523] linear =   131 [     66902] cuts =  0 [   2]
  --> max chng: dpmx=   3.2275E-06 dtmpmx=   1.1217E-07

== TH FLOW =====================================================================
 Step    516 Time=  2.49000E+01 Dt=  5.00000E-02 [y] snes_conv_reason:   11
  newton =   1 [     524] linear =   130 [     67032] cuts =  0 [   2]
  --> max chng: dpmx=   3.0858E-06 dtmpmx=   1.0845E-07

== TH FLOW =====================================================================
 Step    517 Time=  2.49500E+01 Dt=  5.00000E-02 [y] snes_conv_reason:   11
  newton =   1 [     525] linear =   129 [     67161] cuts =  0 [   2]
  --> max chng: dpmx=   2.9474E-06 dtmpmx=   1.0475E-07

== TH FLOW =====================================================================
 Step    518 Time=  2.50000E+01 Dt=  5.00000E-02 [y] snes_conv_reason:   11
  newton =   1 [     526] linear =   132 [     67293] cuts =  0 [   2]
  --> max chng: dpmx=   2.8143E-06 dtmpmx=   1.0113E-07

== TH FLOW =====================================================================
 Step    519 Time=  2.50500E+01 Dt=  5.00000E-02 [y] snes_conv_reason:   11
  newton =   1 [     527] linear =   127 [     67420] cuts =  0 [   2]
  --> max chng: dpmx=   2.6847E-06 dtmpmx=   9.7566E-08

== TH FLOW =====================================================================
 Step    520 Time=  2.51000E+01 Dt=  5.00000E-02 [y] snes_conv_reason:   11
  newton =   1 [     528] linear =   132 [     67552] cuts =  0 [   2]
  --> max chng: dpmx=   2.5596E-06 dtmpmx=   9.4056E-08

== TH FLOW =====================================================================
 Step    521 Time=  2.51500E+01 Dt=  5.00000E-02 [y] snes_conv_reason:   11
  newton =   1 [     529] linear =   127 [     67679] cuts =  0 [   2]
  --> max chng: dpmx=   2.4379E-06 dtmpmx=   9.0618E-08

== TH FLOW =====================================================================
 Step    522 Time=  2.52000E+01 Dt=  5.00000E-02 [y] snes_conv_reason:   11
  newton =   1 [     530] linear =   132 [     67811] cuts =  0 [   2]
  --> max chng: dpmx=   2.3212E-06 dtmpmx=   8.7292E-08

== TH FLOW =====================================================================
 Step    523 Time=  2.52500E+01 Dt=  5.00000E-02 [y] snes_conv_reason:   11
  newton =   1 [     531] linear =   132 [     67943] cuts =  0 [   2]
  --> max chng: dpmx=   2.2079E-06 dtmpmx=   8.3946E-08

== TH FLOW =====================================================================
 Step    524 Time=  2.53000E+01 Dt=  5.00000E-02 [y] snes_conv_reason:   11
  newton =   1 [     532] linear =   133 [     68076] cuts =  0 [   2]
  --> max chng: dpmx=   2.0989E-06 dtmpmx=   8.0688E-08

== TH FLOW =====================================================================
 Step    525 Time=  2.53500E+01 Dt=  5.00000E-02 [y] snes_conv_reason:   11
  newton =   1 [     533] linear =   130 [     68206] cuts =  0 [   2]
  --> max chng: dpmx=   1.9931E-06 dtmpmx=   7.7562E-08

== TH FLOW =====================================================================
 Step    526 Time=  2.54000E+01 Dt=  5.00000E-02 [y] snes_conv_reason:   11
  newton =   1 [     534] linear =   133 [     68339] cuts =  0 [   2]
  --> max chng: dpmx=   1.8920E-06 dtmpmx=   7.4484E-08

== TH FLOW =====================================================================
 Step    527 Time=  2.54500E+01 Dt=  5.00000E-02 [y] snes_conv_reason:   11
  newton =   1 [     535] linear =   133 [     68472] cuts =  0 [   2]
  --> max chng: dpmx=   1.7937E-06 dtmpmx=   7.1519E-08

== TH FLOW =====================================================================
 Step    528 Time=  2.55000E+01 Dt=  5.00000E-02 [y] snes_conv_reason:   11
  newton =   1 [     536] linear =   131 [     68603] cuts =  0 [   2]
  --> max chng: dpmx=   1.7001E-06 dtmpmx=   6.8508E-08

== TH FLOW =====================================================================
 Step    529 Time=  2.55500E+01 Dt=  5.00000E-02 [y] snes_conv_reason:   11
  newton =   1 [     537] linear =   133 [     68736] cuts =  0 [   2]
  --> max chng: dpmx=   1.6091E-06 dtmpmx=   6.5639E-08

== TH FLOW =====================================================================
 Step    530 Time=  2.56000E+01 Dt=  5.00000E-02 [y] snes_conv_reason:   11
  newton =   1 [     538] linear =   132 [     68868] cuts =  0 [   2]
  --> max chng: dpmx=   1.5220E-06 dtmpmx=   6.2857E-08

== TH FLOW =====================================================================
 Step    531 Time=  2.56500E+01 Dt=  5.00000E-02 [y] snes_conv_reason:   11
  newton =   1 [     539] linear =   133 [     69001] cuts =  0 [   2]
  --> max chng: dpmx=   1.4385E-06 dtmpmx=   6.0108E-08

== TH FLOW =====================================================================
 Step    532 Time=  2.57000E+01 Dt=  5.00000E-02 [y] snes_conv_reason:   11
  newton =   1 [     540] linear =   132 [     69133] cuts =  0 [   2]
  --> max chng: dpmx=   1.3583E-06 dtmpmx=   5.7460E-08

== TH FLOW =====================================================================
 Step    533 Time=  2.57500E+01 Dt=  5.00000E-02 [y] snes_conv_reason:   11
  newton =   1 [     541] linear =   132 [     69265] cuts =  0 [   2]
  --> max chng: dpmx=   1.2814E-06 dtmpmx=   5.4876E-08

== TH FLOW =====================================================================
 Step    534 Time=  2.58000E+01 Dt=  5.00000E-02 [y] snes_conv_reason:   11
  newton =   1 [     542] linear =   132 [     69397] cuts =  0 [   2]
  --> max chng: dpmx=   1.2077E-06 dtmpmx=   5.2357E-08

== TH FLOW =====================================================================
 Step    535 Time=  2.58500E+01 Dt=  5.00000E-02 [y] snes_conv_reason:   11
  newton =   1 [     543] linear =   133 [     69530] cuts =  0 [   2]
  --> max chng: dpmx=   1.1373E-06 dtmpmx=   4.9938E-08

== TH FLOW =====================================================================
 Step    536 Time=  2.59000E+01 Dt=  5.00000E-02 [y] snes_conv_reason:   11
  newton =   1 [     544] linear =   133 [     69663] cuts =  0 [   2]
  --> max chng: dpmx=   1.0695E-06 dtmpmx=   4.7566E-08

== TH FLOW =====================================================================
 Step    537 Time=  2.59500E+01 Dt=  5.00000E-02 [y] snes_conv_reason:   11
  newton =   1 [     545] linear =   134 [     69797] cuts =  0 [   2]
  --> max chng: dpmx=   1.0052E-06 dtmpmx=   4.5255E-08

== TH FLOW =====================================================================
 Step    538 Time=  2.60000E+01 Dt=  5.00000E-02 [y] snes_conv_reason:   11
  newton =   1 [     546] linear =   135 [     69932] cuts =  0 [   2]
  --> max chng: dpmx=   9.4343E-07 dtmpmx=   4.3064E-08

== TH FLOW =====================================================================
 Step    539 Time=  2.60500E+01 Dt=  5.00000E-02 [y] snes_conv_reason:   11
  newton =   1 [     547] linear =   130 [     70062] cuts =  0 [   2]
  --> max chng: dpmx=   8.8476E-07 dtmpmx=   4.0887E-08

== TH FLOW =====================================================================
 Step    540 Time=  2.61000E+01 Dt=  5.00000E-02 [y] snes_conv_reason:   11
  newton =   1 [     548] linear =   134 [     70196] cuts =  0 [   2]
  --> max chng: dpmx=   8.2876E-07 dtmpmx=   3.8888E-08

== TH FLOW =====================================================================
 Step    541 Time=  2.61500E+01 Dt=  5.00000E-02 [y] snes_conv_reason:   11
  newton =   1 [     549] linear =   135 [     70331] cuts =  0 [   2]
  --> max chng: dpmx=   7.7556E-07 dtmpmx=   3.6827E-08

== TH FLOW =====================================================================
 Step    542 Time=  2.62000E+01 Dt=  5.00000E-02 [y] snes_conv_reason:   11
  newton =   1 [     550] linear =   136 [     70467] cuts =  0 [   2]
  --> max chng: dpmx=   7.2480E-07 dtmpmx=   3.4865E-08

== TH FLOW =====================================================================
 Step    543 Time=  2.62500E+01 Dt=  5.00000E-02 [y] snes_conv_reason:   11
  newton =   1 [     551] linear =   136 [     70603] cuts =  0 [   2]
  --> max chng: dpmx=   6.7649E-07 dtmpmx=   3.3054E-08

== TH FLOW =====================================================================
 Step    544 Time=  2.63000E+01 Dt=  5.00000E-02 [y] snes_conv_reason:   11
  newton =   1 [     552] linear =   135 [     70738] cuts =  0 [   2]
  --> max chng: dpmx=   6.3074E-07 dtmpmx=   3.1210E-08

== TH FLOW =====================================================================
 Step    545 Time=  2.63500E+01 Dt=  5.00000E-02 [y] snes_conv_reason:   11
  newton =   1 [     553] linear =   136 [     70874] cuts =  0 [   2]
  --> max chng: dpmx=   5.8708E-07 dtmpmx=   2.9490E-08

== TH FLOW =====================================================================
 Step    546 Time=  2.64000E+01 Dt=  5.00000E-02 [y] snes_conv_reason:   11
  newton =   1 [     554] linear =   137 [     71011] cuts =  0 [   2]
  --> max chng: dpmx=   5.4587E-07 dtmpmx=   2.7827E-08

== TH FLOW =====================================================================
 Step    547 Time=  2.64500E+01 Dt=  5.00000E-02 [y] snes_conv_reason:   11
  newton =   1 [     555] linear =   138 [     71149] cuts =  0 [   2]
  --> max chng: dpmx=   5.0687E-07 dtmpmx=   2.6254E-08

== TH FLOW =====================================================================
 Step    548 Time=  2.65000E+01 Dt=  5.00000E-02 [y] snes_conv_reason:   11
  newton =   1 [     556] linear =   136 [     71285] cuts =  0 [   2]
  --> max chng: dpmx=   4.6985E-07 dtmpmx=   2.4704E-08

== TH FLOW =====================================================================
 Step    549 Time=  2.65500E+01 Dt=  5.00000E-02 [y] snes_conv_reason:   11
  newton =   1 [     557] linear =   138 [     71423] cuts =  0 [   2]
  --> max chng: dpmx=   4.3516E-07 dtmpmx=   2.3250E-08

== TH FLOW =====================================================================
 Step    550 Time=  2.66000E+01 Dt=  5.00000E-02 [y] snes_conv_reason:   11
  newton =   1 [     558] linear =   139 [     71562] cuts =  0 [   2]
  --> max chng: dpmx=   4.0198E-07 dtmpmx=   2.1792E-08

== TH FLOW =====================================================================
 Step    551 Time=  2.66500E+01 Dt=  5.00000E-02 [y] snes_conv_reason:   11
  newton =   1 [     559] linear =   136 [     71698] cuts =  0 [   2]
  --> max chng: dpmx=   3.7113E-07 dtmpmx=   2.0462E-08

== TH FLOW =====================================================================
 Step    552 Time=  2.67000E+01 Dt=  5.00000E-02 [y] snes_conv_reason:   11
  newton =   1 [     560] linear =   135 [     71833] cuts =  0 [   2]
  --> max chng: dpmx=   3.4180E-07 dtmpmx=   1.9195E-08

== TH FLOW =====================================================================
 Step    553 Time=  2.67500E+01 Dt=  5.00000E-02 [y] snes_conv_reason:   11
  newton =   1 [     561] linear =   135 [     71968] cuts =  0 [   2]
  --> max chng: dpmx=   3.1432E-07 dtmpmx=   1.7957E-08

== TH FLOW =====================================================================
 Step    554 Time=  2.68000E+01 Dt=  5.00000E-02 [y] snes_conv_reason:   11
  newton =   1 [     562] linear =   136 [     72104] cuts =  0 [   2]
  --> max chng: dpmx=   2.8836E-07 dtmpmx=   1.6766E-08

== TH FLOW =====================================================================
 Step    555 Time=  2.68500E+01 Dt=  5.00000E-02 [y] snes_conv_reason:   11
  newton =   1 [     563] linear =   136 [     72240] cuts =  0 [   2]
  --> max chng: dpmx=   2.6415E-07 dtmpmx=   1.5601E-08

== TH FLOW =====================================================================
 Step    556 Time=  2.69000E+01 Dt=  5.00000E-02 [y] snes_conv_reason:   11
  newton =   1 [     564] linear =   135 [     72375] cuts =  0 [   2]
  --> max chng: dpmx=   2.4145E-07 dtmpmx=   1.4560E-08

== TH FLOW =====================================================================
 Step    557 Time=  2.69500E+01 Dt=  5.00000E-02 [y] snes_conv_reason:   11
  newton =   1 [     565] linear =   136 [     72511] cuts =  0 [   2]
  --> max chng: dpmx=   2.2014E-07 dtmpmx=   1.3540E-08

== TH FLOW =====================================================================
 Step    558 Time=  2.70000E+01 Dt=  5.00000E-02 [y] snes_conv_reason:   11
  newton =   1 [     566] linear =   136 [     72647] cuts =  0 [   2]
  --> max chng: dpmx=   2.0035E-07 dtmpmx=   1.2558E-08

== TH FLOW =====================================================================
 Step    559 Time=  2.70500E+01 Dt=  5.00000E-02 [y] snes_conv_reason:   11
  newton =   1 [     567] linear =   135 [     72782] cuts =  0 [   2]
  --> max chng: dpmx=   1.8172E-07 dtmpmx=   1.1645E-08

== TH FLOW =====================================================================
 Step    560 Time=  2.71000E+01 Dt=  5.00000E-02 [y] snes_conv_reason:   11
  newton =   1 [     568] linear =   139 [     72921] cuts =  0 [   2]
  --> max chng: dpmx=   1.6449E-07 dtmpmx=   1.0801E-08

== TH FLOW =====================================================================
 Step    561 Time=  2.71500E+01 Dt=  5.00000E-02 [y] snes_conv_reason:   11
  newton =   1 [     569] linear =   135 [     73056] cuts =  0 [   2]
  --> max chng: dpmx=   1.4843E-07 dtmpmx=   9.9580E-09

== TH FLOW =====================================================================
 Step    562 Time=  2.72000E+01 Dt=  5.00000E-02 [y] snes_conv_reason:   11
  newton =   1 [     570] linear =   138 [     73194] cuts =  0 [   2]
  --> max chng: dpmx=   1.3353E-07 dtmpmx=   9.1644E-09

== TH FLOW =====================================================================
 Step    563 Time=  2.72500E+01 Dt=  5.00000E-02 [y] snes_conv_reason:   11
  newton =   1 [     571] linear =   135 [     73329] cuts =  0 [   2]
  --> max chng: dpmx=   1.1979E-07 dtmpmx=   8.4434E-09

== TH FLOW =====================================================================
 Step    564 Time=  2.73000E+01 Dt=  5.00000E-02 [y] snes_conv_reason:   11
  newton =   1 [     572] linear =   132 [     73461] cuts =  0 [   2]
  --> max chng: dpmx=   1.0699E-07 dtmpmx=   7.7325E-09

== TH FLOW =====================================================================
 Step    565 Time=  2.73500E+01 Dt=  5.00000E-02 [y] snes_conv_reason:   11
  newton =   1 [     573] linear =   132 [     73593] cuts =  0 [   2]
  --> max chng: dpmx=   9.5228E-08 dtmpmx=   7.0445E-09

== TH FLOW =====================================================================
 Step    566 Time=  2.74000E+01 Dt=  5.00000E-02 [y] snes_conv_reason:   11
  newton =   1 [     574] linear =   136 [     73729] cuts =  0 [   2]
  --> max chng: dpmx=   8.4401E-08 dtmpmx=   6.4191E-09

== TH FLOW =====================================================================
 Step    567 Time=  2.74500E+01 Dt=  5.00000E-02 [y] snes_conv_reason:   11
  newton =   1 [     575] linear =   137 [     73866] cuts =  0 [   2]
  --> max chng: dpmx=   7.4622E-08 dtmpmx=   5.8409E-09

== TH FLOW =====================================================================
 Step    568 Time=  2.75000E+01 Dt=  5.00000E-02 [y] snes_conv_reason:   11
  newton =   1 [     576] linear =   135 [     74001] cuts =  0 [   2]
  --> max chng: dpmx=   6.5425E-08 dtmpmx=   5.3006E-09

 Wall Clock Time:  1.3154E+02 [sec]   2.1923E+00 [min]   3.6539E-02 [hr]
