
===================
  PFLOTRAN v3.0.1
===================

 Extent of Gridded Domain
  X: 2.5000000000000000 - 97.500000000000000
  Y: 2.5000000000000000 - 1277.5000000000000
  Z: 2.5000000000000000 - 2.5000000000000000


=+=+=+=+=+=+=+=+=+=+=+=+=+=+=+=+=+=+=+=+=+=+=+=+=+=+=+=+=+=+=+=+=+=+=+=+=+=+=+=+

  Initial Condition

--------------------------------------------------------------------------------
          Flow Condition:   initial
                  Region:   all
--------------------------------------------------------------------------------

  Flow Condition: initial
    Synchronize time with update: no
    Time units: yr
    Length units: m
      Datum:
        Dataset: Unnamed Ascii Dataset
          Type: dataset_ascii_type
          Transient: no
          Array Rank:  3

    Sub Condition: pressure
      Type: hydrostatic
      Gradient:
        Dataset: Unnamed Ascii Dataset
          Type: dataset_ascii_type
          Transient: no
          Array Rank:  3
      Data:
        Dataset: Unnamed Ascii Dataset
          Type: dataset_ascii_type
          Transient: no
          Array Rank:  1

    Sub Condition: temperature
      Type: dirichlet
      Gradient:
      Data:
        Dataset: Unnamed Ascii Dataset
          Type: dataset_ascii_type
          Transient: no
          Array Rank:  1

--------------------------------------------------------------------------------

=+=+=+=+=+=+=+=+=+=+=+=+=+=+=+=+=+=+=+=+=+=+=+=+=+=+=+=+=+=+=+=+=+=+=+=+=+=+=+=+

  Boundary Condition

--------------------------------------------------------------------------------
          Flow Condition:   initial
                  Region:   north
--------------------------------------------------------------------------------

  Flow Condition: initial
    Synchronize time with update: no
    Time units: yr
    Length units: m
      Datum:
        Dataset: Unnamed Ascii Dataset
          Type: dataset_ascii_type
          Transient: no
          Array Rank:  3

    Sub Condition: pressure
      Type: hydrostatic
      Gradient:
        Dataset: Unnamed Ascii Dataset
          Type: dataset_ascii_type
          Transient: no
          Array Rank:  3
      Data:
        Dataset: Unnamed Ascii Dataset
          Type: dataset_ascii_type
          Transient: no
          Array Rank:  1

    Sub Condition: temperature
      Type: dirichlet
      Gradient:
      Data:
        Dataset: Unnamed Ascii Dataset
          Type: dataset_ascii_type
          Transient: no
          Array Rank:  1

--------------------------------------------------------------------------------

=+=+=+=+=+=+=+=+=+=+=+=+=+=+=+=+=+=+=+=+=+=+=+=+=+=+=+=+=+=+=+=+=+=+=+=+=+=+=+=+

  Boundary Condition

--------------------------------------------------------------------------------
          Flow Condition:   initial
                  Region:   south
--------------------------------------------------------------------------------

  Flow Condition: initial
    Synchronize time with update: no
    Time units: yr
    Length units: m
      Datum:
        Dataset: Unnamed Ascii Dataset
          Type: dataset_ascii_type
          Transient: no
          Array Rank:  3

    Sub Condition: pressure
      Type: hydrostatic
      Gradient:
        Dataset: Unnamed Ascii Dataset
          Type: dataset_ascii_type
          Transient: no
          Array Rank:  3
      Data:
        Dataset: Unnamed Ascii Dataset
          Type: dataset_ascii_type
          Transient: no
          Array Rank:  1

    Sub Condition: temperature
      Type: dirichlet
      Gradient:
      Data:
        Dataset: Unnamed Ascii Dataset
          Type: dataset_ascii_type
          Transient: no
          Array Rank:  1

--------------------------------------------------------------------------------

=+=+=+=+=+=+=+=+=+=+=+=+=+=+=+=+=+=+=+=+=+=+=+=+=+=+=+=+=+=+=+=+=+=+=+=+=+=+=+=+

  Source Sink

--------------------------------------------------------------------------------
          Flow Condition:   injection
                  Region:   heatpump_inject0
--------------------------------------------------------------------------------

  Flow Condition: injection
    Synchronize time with update: no
    Time units: yr
    Length units: m
      Datum:

    Sub Condition: rate
      Type: scaled volumetric rate
      Gradient:
      Data:
        Dataset: Unnamed Ascii Dataset
          Type: dataset_ascii_type
          Is transient?: yes
          Number of times:      3
          Is cyclic?: no
          Buffer:
            Rank:  2
            Dims:    1   3
            Buffer Slice Size:   0
          Array Rank:  1

    Sub Condition: temperature
      Type: dirichlet
      Gradient:
      Data:
        Dataset: Unnamed Ascii Dataset
          Type: dataset_ascii_type
          Transient: no
          Array Rank:  1

--------------------------------------------------------------------------------

 Requested processors =    32

FLOW Time Stepper
                 acceleration: on
       acceleration threshold: 5
       number of ramp entries: 5
                ramp entry #1: 2.0000
                ramp entry #2: 2.0000
                ramp entry #3: 2.0000
                ramp entry #4: 2.0000
                ramp entry #5: 2.0000
                ramp entry #6: 1.8000
                ramp entry #7: 1.6000
                ramp entry #8: 1.4000
                ramp entry #9: 1.2000
               ramp entry #10: 1.0000
               ramp entry #11: 1.0000
               ramp entry #12: 1.0000
               ramp entry #13: 1.0000
      maximum number of steps: 999999
constant time steps threshold: 5
       maximum number of cuts: 16
             reduction factor: 5.000000E-01
        maximum growth factor: 2.000000E+00

FLOW Newton Solver
                         atol: 1.000000E-50
                         rtol: 1.000000E-03
                         stol: 1.000000E-08
                         dtol: 1.000000E+04
                      maxnorm: 1.000000E+20
                    inftolres: -9.990000E+02
                    inftolupd: 1.000000E+00
                 inftolrelupd: -9.990000E+02
                 inftolsclres: -9.990000E+02
                     max iter: 50
                     min iter: 1
                         maxf: 10000
                  matrix type: baij
         precond. matrix type: baij
               inexact newton: off
            print convergence: on
   print detailed convergence: off
          check infinity norm: on

FLOW Linear Solver
                       solver: bcgs
               preconditioner: bjacobi
                         atol: 1.000000E-50
                         rtol: 1.000000E-05
                         dtol: 1.000000E+04
            maximum iteration: 10000

== TH FLOW =====================================================================
 Step      1 Time=  1.00000E-05 Dt=  1.00000E-05 [y] snes_conv_reason:   11
  newton =   1 [       1] linear =   115 [       115] cuts =  0 [   0]
  --> max chng: dpmx=   9.8478E-02 dtmpmx=   1.1650E-08

== TH FLOW =====================================================================
 Step      2 Time=  3.00000E-05 Dt=  2.00000E-05 [y] snes_conv_reason:   11
  newton =   1 [       2] linear =   120 [       235] cuts =  0 [   0]
  --> max chng: dpmx=   2.5021E-02 dtmpmx=   2.3084E-08

== TH FLOW =====================================================================
 Step      3 Time=  7.00000E-05 Dt=  4.00000E-05 [y] snes_conv_reason:   11
  newton =   1 [       3] linear =   121 [       356] cuts =  0 [   0]
  --> max chng: dpmx=   3.2893E-03 dtmpmx=   4.6110E-08

== TH FLOW =====================================================================
 Step      4 Time=  1.50000E-04 Dt=  8.00000E-05 [y] snes_conv_reason:   11
  newton =   1 [       4] linear =   119 [       475] cuts =  0 [   0]
  --> max chng: dpmx=   2.2242E-04 dtmpmx=   9.2215E-08

== TH FLOW =====================================================================
 Step      5 Time=  3.10000E-04 Dt=  1.60000E-04 [y] snes_conv_reason:   11
  newton =   1 [       5] linear =   135 [       610] cuts =  0 [   0]
  --> max chng: dpmx=   7.2771E-06 dtmpmx=   1.8443E-07

== TH FLOW =====================================================================
 Step      6 Time=  6.30000E-04 Dt=  3.20000E-04 [y] snes_conv_reason:   11
  newton =   1 [       6] linear =   131 [       741] cuts =  0 [   0]
  --> max chng: dpmx=   1.5266E-06 dtmpmx=   3.6886E-07

== TH FLOW =====================================================================
 Step      7 Time=  1.27000E-03 Dt=  6.40000E-04 [y] snes_conv_reason:   11
  newton =   1 [       7] linear =   126 [       867] cuts =  0 [   0]
  --> max chng: dpmx=   3.1227E-06 dtmpmx=   7.3772E-07

== TH FLOW =====================================================================
 Step      8 Time=  2.55000E-03 Dt=  1.28000E-03 [y] snes_conv_reason:   11
  newton =   1 [       8] linear =   121 [       988] cuts =  0 [   0]
  --> max chng: dpmx=   6.4941E-06 dtmpmx=   1.4754E-06

== TH FLOW =====================================================================
 Step      9 Time=  5.11000E-03 Dt=  2.56000E-03 [y] snes_conv_reason:   11
  newton =   1 [       9] linear =   126 [      1114] cuts =  0 [   0]
  --> max chng: dpmx=   1.3968E-05 dtmpmx=   2.9509E-06

== TH FLOW =====================================================================
 Step     10 Time=  1.02300E-02 Dt=  5.12000E-03 [y] snes_conv_reason:   11
  newton =   1 [      10] linear =   127 [      1241] cuts =  0 [   0]
  --> max chng: dpmx=   3.1903E-05 dtmpmx=   5.9017E-06

== TH FLOW =====================================================================
 Step     11 Time=  2.04700E-02 Dt=  1.02400E-02 [y] snes_conv_reason:   11
  newton =   1 [      11] linear =   126 [      1367] cuts =  0 [   0]
  --> max chng: dpmx=   7.9628E-05 dtmpmx=   1.1803E-05

== TH FLOW =====================================================================
 Step     12 Time=  4.09500E-02 Dt=  2.04800E-02 [y] snes_conv_reason:   11
  newton =   1 [      12] linear =   130 [      1497] cuts =  0 [   0]
  --> max chng: dpmx=   2.2166E-04 dtmpmx=   2.3607E-05

== TH FLOW =====================================================================
 Step     13 Time=  8.19100E-02 Dt=  4.09600E-02 [y] snes_conv_reason:   11
  newton =   1 [      13] linear =   127 [      1624] cuts =  0 [   0]
  --> max chng: dpmx=   6.8696E-04 dtmpmx=   4.7214E-05

== TH FLOW =====================================================================
 Step     14 Time=  1.00000E-01 Dt=  1.80900E-02 [y] snes_conv_reason:   11
  newton =   1 [      14] linear =   133 [      1757] cuts =  0 [   0]
  --> max chng: dpmx=   3.5127E-04 dtmpmx=   2.0852E-05

== TH FLOW =====================================================================
 Step     15 Time=  1.50000E-01 Dt=  5.00000E-02 [y] snes_conv_reason:   11
  newton =   1 [      15] linear =   134 [      1891] cuts =  0 [   0]
  --> max chng: dpmx=   1.3249E-03 dtmpmx=   5.7634E-05

== TH FLOW =====================================================================
 Step     16 Time=  2.00000E-01 Dt=  5.00000E-02 [y] snes_conv_reason:   11
  newton =   1 [      16] linear =   136 [      2027] cuts =  0 [   0]
  --> max chng: dpmx=   1.6730E-03 dtmpmx=   5.7634E-05

== TH FLOW =====================================================================
 Step     17 Time=  2.50000E-01 Dt=  5.00000E-02 [y] snes_conv_reason:   11
  newton =   3 [      19] linear =   394 [      2421] cuts =  0 [   0]
  --> max chng: dpmx=   3.1928E+02 dtmpmx=   2.6824E+00

== TH FLOW =====================================================================
 Step     18 Time=  3.00000E-01 Dt=  5.00000E-02 [y] snes_conv_reason:   11
  newton =   2 [      21] linear =   266 [      2687] cuts =  0 [   0]
  --> max chng: dpmx=   2.7848E+00 dtmpmx=   1.0577E+00

== TH FLOW =====================================================================
 Step     19 Time=  3.50000E-01 Dt=  5.00000E-02 [y] snes_conv_reason:   11
  newton =   2 [      23] linear =   276 [      2963] cuts =  0 [   0]
  --> max chng: dpmx=   2.5123E+00 dtmpmx=   7.5370E-01

== TH FLOW =====================================================================
 Step     20 Time=  4.00000E-01 Dt=  5.00000E-02 [y] snes_conv_reason:   11
  newton =   2 [      25] linear =   269 [      3232] cuts =  0 [   0]
  --> max chng: dpmx=   2.3662E+00 dtmpmx=   6.0960E-01

== TH FLOW =====================================================================
 Step     21 Time=  4.50000E-01 Dt=  5.00000E-02 [y] snes_conv_reason:   11
  newton =   2 [      27] linear =   252 [      3484] cuts =  0 [   0]
  --> max chng: dpmx=   2.2677E+00 dtmpmx=   5.2483E-01

== TH FLOW =====================================================================
 Step     22 Time=  5.00000E-01 Dt=  5.00000E-02 [y] snes_conv_reason:   11
  newton =   2 [      29] linear =   268 [      3752] cuts =  0 [   0]
  --> max chng: dpmx=   2.1937E+00 dtmpmx=   4.6636E-01

== TH FLOW =====================================================================
 Step     23 Time=  5.50000E-01 Dt=  5.00000E-02 [y] snes_conv_reason:   11
  newton =   2 [      31] linear =   279 [      4031] cuts =  0 [   0]
  --> max chng: dpmx=   2.1361E+00 dtmpmx=   4.2132E-01

== TH FLOW =====================================================================
 Step     24 Time=  6.00000E-01 Dt=  5.00000E-02 [y] snes_conv_reason:   11
  newton =   2 [      33] linear =   261 [      4292] cuts =  0 [   0]
  --> max chng: dpmx=   2.0871E+00 dtmpmx=   3.8511E-01

== TH FLOW =====================================================================
 Step     25 Time=  6.50000E-01 Dt=  5.00000E-02 [y] snes_conv_reason:    3
  newton =   1 [      34] linear =   135 [      4427] cuts =  0 [   0]
  --> max chng: dpmx=   2.0434E+00 dtmpmx=   3.5729E-01

== TH FLOW =====================================================================
 Step     26 Time=  7.00000E-01 Dt=  5.00000E-02 [y] snes_conv_reason:    3
  newton =   1 [      35] linear =   135 [      4562] cuts =  0 [   0]
  --> max chng: dpmx=   2.0064E+00 dtmpmx=   3.3389E-01

== TH FLOW =====================================================================
 Step     27 Time=  7.50000E-01 Dt=  5.00000E-02 [y] snes_conv_reason:    3
  newton =   1 [      36] linear =   129 [      4691] cuts =  0 [   0]
  --> max chng: dpmx=   1.9705E+00 dtmpmx=   3.1333E-01

== TH FLOW =====================================================================
 Step     28 Time=  8.00000E-01 Dt=  5.00000E-02 [y] snes_conv_reason:    3
  newton =   1 [      37] linear =   135 [      4826] cuts =  0 [   0]
  --> max chng: dpmx=   1.9379E+00 dtmpmx=   2.9519E-01

== TH FLOW =====================================================================
 Step     29 Time=  8.50000E-01 Dt=  5.00000E-02 [y] snes_conv_reason:    3
  newton =   1 [      38] linear =   136 [      4962] cuts =  0 [   0]
  --> max chng: dpmx=   1.9072E+00 dtmpmx=   2.8036E-01

== TH FLOW =====================================================================
 Step     30 Time=  9.00000E-01 Dt=  5.00000E-02 [y] snes_conv_reason:    3
  newton =   1 [      39] linear =   130 [      5092] cuts =  0 [   0]
  --> max chng: dpmx=   1.8783E+00 dtmpmx=   2.6674E-01

== TH FLOW =====================================================================
 Step     31 Time=  9.50000E-01 Dt=  5.00000E-02 [y] snes_conv_reason:    3
  newton =   1 [      40] linear =   135 [      5227] cuts =  0 [   0]
  --> max chng: dpmx=   1.8498E+00 dtmpmx=   2.5420E-01

== TH FLOW =====================================================================
 Step     32 Time=  1.00000E+00 Dt=  5.00000E-02 [y] snes_conv_reason:    3
  newton =   1 [      41] linear =   132 [      5359] cuts =  0 [   0]
  --> max chng: dpmx=   1.8232E+00 dtmpmx=   2.4315E-01

== TH FLOW =====================================================================
 Step     33 Time=  1.05000E+00 Dt=  5.00000E-02 [y] snes_conv_reason:    3
  newton =   1 [      42] linear =   132 [      5491] cuts =  0 [   0]
  --> max chng: dpmx=   1.7960E+00 dtmpmx=   2.3334E-01

== TH FLOW =====================================================================
 Step     34 Time=  1.10000E+00 Dt=  5.00000E-02 [y] snes_conv_reason:    3
  newton =   1 [      43] linear =   131 [      5622] cuts =  0 [   0]
  --> max chng: dpmx=   1.7708E+00 dtmpmx=   2.2410E-01

== TH FLOW =====================================================================
 Step     35 Time=  1.15000E+00 Dt=  5.00000E-02 [y] snes_conv_reason:    3
  newton =   1 [      44] linear =   135 [      5757] cuts =  0 [   0]
  --> max chng: dpmx=   1.7456E+00 dtmpmx=   2.1540E-01

== TH FLOW =====================================================================
 Step     36 Time=  1.20000E+00 Dt=  5.00000E-02 [y] snes_conv_reason:    3
  newton =   1 [      45] linear =   133 [      5890] cuts =  0 [   0]
  --> max chng: dpmx=   1.7213E+00 dtmpmx=   2.0791E-01

== TH FLOW =====================================================================
 Step     37 Time=  1.25000E+00 Dt=  5.00000E-02 [y] snes_conv_reason:    3
  newton =   1 [      46] linear =   134 [      6024] cuts =  0 [   0]
  --> max chng: dpmx=   1.6968E+00 dtmpmx=   2.0078E-01

== TH FLOW =====================================================================
 Step     38 Time=  1.30000E+00 Dt=  5.00000E-02 [y] snes_conv_reason:    3
  newton =   1 [      47] linear =   136 [      6160] cuts =  0 [   0]
  --> max chng: dpmx=   1.6735E+00 dtmpmx=   1.9398E-01

== TH FLOW =====================================================================
 Step     39 Time=  1.35000E+00 Dt=  5.00000E-02 [y] snes_conv_reason:    3
  newton =   1 [      48] linear =   123 [      6283] cuts =  0 [   0]
  --> max chng: dpmx=   1.6493E+00 dtmpmx=   1.8774E-01

== TH FLOW =====================================================================
 Step     40 Time=  1.40000E+00 Dt=  5.00000E-02 [y] snes_conv_reason:    3
  newton =   1 [      49] linear =   132 [      6415] cuts =  0 [   0]
  --> max chng: dpmx=   1.6269E+00 dtmpmx=   1.8206E-01

== TH FLOW =====================================================================
 Step     41 Time=  1.45000E+00 Dt=  5.00000E-02 [y] snes_conv_reason:    3
  newton =   1 [      50] linear =   134 [      6549] cuts =  0 [   0]
  --> max chng: dpmx=   1.6042E+00 dtmpmx=   1.7658E-01

== TH FLOW =====================================================================
 Step     42 Time=  1.50000E+00 Dt=  5.00000E-02 [y] snes_conv_reason:    3
  newton =   1 [      51] linear =   134 [      6683] cuts =  0 [   0]
  --> max chng: dpmx=   1.5811E+00 dtmpmx=   1.7130E-01

== TH FLOW =====================================================================
 Step     43 Time=  1.55000E+00 Dt=  5.00000E-02 [y] snes_conv_reason:    3
  newton =   1 [      52] linear =   132 [      6815] cuts =  0 [   0]
  --> max chng: dpmx=   1.5590E+00 dtmpmx=   1.6664E-01

== TH FLOW =====================================================================
 Step     44 Time=  1.60000E+00 Dt=  5.00000E-02 [y] snes_conv_reason:    3
  newton =   1 [      53] linear =   128 [      6943] cuts =  0 [   0]
  --> max chng: dpmx=   1.5373E+00 dtmpmx=   1.6213E-01

== TH FLOW =====================================================================
 Step     45 Time=  1.65000E+00 Dt=  5.00000E-02 [y] snes_conv_reason:    3
  newton =   1 [      54] linear =   136 [      7079] cuts =  0 [   0]
  --> max chng: dpmx=   1.5149E+00 dtmpmx=   1.5775E-01

== TH FLOW =====================================================================
 Step     46 Time=  1.70000E+00 Dt=  5.00000E-02 [y] snes_conv_reason:    3
  newton =   1 [      55] linear =   130 [      7209] cuts =  0 [   0]
  --> max chng: dpmx=   1.4935E+00 dtmpmx=   1.5368E-01

== TH FLOW =====================================================================
 Step     47 Time=  1.75000E+00 Dt=  5.00000E-02 [y] snes_conv_reason:    3
  newton =   1 [      56] linear =   129 [      7338] cuts =  0 [   0]
  --> max chng: dpmx=   1.4718E+00 dtmpmx=   1.4991E-01

== TH FLOW =====================================================================
 Step     48 Time=  1.80000E+00 Dt=  5.00000E-02 [y] snes_conv_reason:    3
  newton =   1 [      57] linear =   131 [      7469] cuts =  0 [   0]
  --> max chng: dpmx=   1.4498E+00 dtmpmx=   1.4622E-01

== TH FLOW =====================================================================
 Step     49 Time=  1.85000E+00 Dt=  5.00000E-02 [y] snes_conv_reason:    3
  newton =   1 [      58] linear =   131 [      7600] cuts =  0 [   0]
  --> max chng: dpmx=   1.4290E+00 dtmpmx=   1.4262E-01

== TH FLOW =====================================================================
 Step     50 Time=  1.90000E+00 Dt=  5.00000E-02 [y] snes_conv_reason:    3
  newton =   1 [      59] linear =   132 [      7732] cuts =  0 [   0]
  --> max chng: dpmx=   1.4074E+00 dtmpmx=   1.3941E-01

== TH FLOW =====================================================================
 Step     51 Time=  1.95000E+00 Dt=  5.00000E-02 [y] snes_conv_reason:    3
  newton =   1 [      60] linear =   130 [      7862] cuts =  0 [   0]
  --> max chng: dpmx=   1.3869E+00 dtmpmx=   1.3626E-01

== TH FLOW =====================================================================
 Step     52 Time=  2.00000E+00 Dt=  5.00000E-02 [y] snes_conv_reason:    3
  newton =   1 [      61] linear =   124 [      7986] cuts =  0 [   0]
  --> max chng: dpmx=   1.3660E+00 dtmpmx=   1.3318E-01

== TH FLOW =====================================================================
 Step     53 Time=  2.05000E+00 Dt=  5.00000E-02 [y] snes_conv_reason:    3
  newton =   1 [      62] linear =   129 [      8115] cuts =  0 [   0]
  --> max chng: dpmx=   1.3445E+00 dtmpmx=   1.3030E-01

== TH FLOW =====================================================================
 Step     54 Time=  2.10000E+00 Dt=  5.00000E-02 [y] snes_conv_reason:    3
  newton =   1 [      63] linear =   129 [      8244] cuts =  0 [   0]
  --> max chng: dpmx=   1.3242E+00 dtmpmx=   1.2758E-01

== TH FLOW =====================================================================
 Step     55 Time=  2.15000E+00 Dt=  5.00000E-02 [y] snes_conv_reason:    3
  newton =   1 [      64] linear =   128 [      8372] cuts =  0 [   0]
  --> max chng: dpmx=   1.3037E+00 dtmpmx=   1.2491E-01

== TH FLOW =====================================================================
 Step     56 Time=  2.20000E+00 Dt=  5.00000E-02 [y] snes_conv_reason:    3
  newton =   1 [      65] linear =   135 [      8507] cuts =  0 [   0]
  --> max chng: dpmx=   1.2831E+00 dtmpmx=   1.2230E-01

== TH FLOW =====================================================================
 Step     57 Time=  2.25000E+00 Dt=  5.00000E-02 [y] snes_conv_reason:    3
  newton =   1 [      66] linear =   136 [      8643] cuts =  0 [   0]
  --> max chng: dpmx=   1.2627E+00 dtmpmx=   1.1994E-01

== TH FLOW =====================================================================
 Step     58 Time=  2.30000E+00 Dt=  5.00000E-02 [y] snes_conv_reason:    3
  newton =   1 [      67] linear =   136 [      8779] cuts =  0 [   0]
  --> max chng: dpmx=   1.2423E+00 dtmpmx=   1.1761E-01

== TH FLOW =====================================================================
 Step     59 Time=  2.35000E+00 Dt=  5.00000E-02 [y] snes_conv_reason:    3
  newton =   1 [      68] linear =   130 [      8909] cuts =  0 [   0]
  --> max chng: dpmx=   1.2221E+00 dtmpmx=   1.1531E-01

== TH FLOW =====================================================================
 Step     60 Time=  2.40000E+00 Dt=  5.00000E-02 [y] snes_conv_reason:    3
  newton =   1 [      69] linear =   130 [      9039] cuts =  0 [   0]
  --> max chng: dpmx=   1.2016E+00 dtmpmx=   1.1316E-01

== TH FLOW =====================================================================
 Step     61 Time=  2.45000E+00 Dt=  5.00000E-02 [y] snes_conv_reason:    3
  newton =   1 [      70] linear =   123 [      9162] cuts =  0 [   0]
  --> max chng: dpmx=   1.1817E+00 dtmpmx=   1.1111E-01

== TH FLOW =====================================================================
 Step     62 Time=  2.50000E+00 Dt=  5.00000E-02 [y] snes_conv_reason:    3
  newton =   1 [      71] linear =   132 [      9294] cuts =  0 [   0]
  --> max chng: dpmx=   1.1621E+00 dtmpmx=   1.0908E-01

== TH FLOW =====================================================================
 Step     63 Time=  2.55000E+00 Dt=  5.00000E-02 [y] snes_conv_reason:    3
  newton =   1 [      72] linear =   125 [      9419] cuts =  0 [   0]
  --> max chng: dpmx=   1.1419E+00 dtmpmx=   1.0711E-01

== TH FLOW =====================================================================
 Step     64 Time=  2.60000E+00 Dt=  5.00000E-02 [y] snes_conv_reason:    3
  newton =   1 [      73] linear =   128 [      9547] cuts =  0 [   0]
  --> max chng: dpmx=   1.1218E+00 dtmpmx=   1.0529E-01

== TH FLOW =====================================================================
 Step     65 Time=  2.65000E+00 Dt=  5.00000E-02 [y] snes_conv_reason:    3
  newton =   1 [      74] linear =   128 [      9675] cuts =  0 [   0]
  --> max chng: dpmx=   1.1016E+00 dtmpmx=   1.0349E-01

== TH FLOW =====================================================================
 Step     66 Time=  2.70000E+00 Dt=  5.00000E-02 [y] snes_conv_reason:    3
  newton =   1 [      75] linear =   129 [      9804] cuts =  0 [   0]
  --> max chng: dpmx=   1.0826E+00 dtmpmx=   1.0171E-01

== TH FLOW =====================================================================
 Step     67 Time=  2.75000E+00 Dt=  5.00000E-02 [y] snes_conv_reason:    3
  newton =   1 [      76] linear =   134 [      9938] cuts =  0 [   0]
  --> max chng: dpmx=   1.0623E+00 dtmpmx=   1.0005E-01

== TH FLOW =====================================================================
 Step     68 Time=  2.80000E+00 Dt=  5.00000E-02 [y] snes_conv_reason:    3
  newton =   1 [      77] linear =   133 [     10071] cuts =  0 [   0]
  --> max chng: dpmx=   1.0427E+00 dtmpmx=   9.8440E-02

== TH FLOW =====================================================================
 Step     69 Time=  2.85000E+00 Dt=  5.00000E-02 [y] snes_conv_reason:    3
  newton =   1 [      78] linear =   125 [     10196] cuts =  0 [   0]
  --> max chng: dpmx=   1.0232E+00 dtmpmx=   9.6844E-02

== TH FLOW =====================================================================
 Step     70 Time=  2.90000E+00 Dt=  5.00000E-02 [y] snes_conv_reason:    3
  newton =   1 [      79] linear =   134 [     10330] cuts =  0 [   0]
  --> max chng: dpmx=   1.0033E+00 dtmpmx=   9.5297E-02

== TH FLOW =====================================================================
 Step     71 Time=  2.95000E+00 Dt=  5.00000E-02 [y] snes_conv_reason:   11
  newton =   1 [      80] linear =   125 [     10455] cuts =  0 [   0]
  --> max chng: dpmx=   9.8377E-01 dtmpmx=   9.3857E-02

== TH FLOW =====================================================================
 Step     72 Time=  3.00000E+00 Dt=  5.00000E-02 [y] snes_conv_reason:   11
  newton =   1 [      81] linear =   132 [     10587] cuts =  0 [   0]
  --> max chng: dpmx=   9.6449E-01 dtmpmx=   9.2423E-02

== TH FLOW =====================================================================
 Step     73 Time=  3.05000E+00 Dt=  5.00000E-02 [y] snes_conv_reason:   11
  newton =   1 [      82] linear =   132 [     10719] cuts =  0 [   0]
  --> max chng: dpmx=   9.4487E-01 dtmpmx=   9.0997E-02

== TH FLOW =====================================================================
 Step     74 Time=  3.10000E+00 Dt=  5.00000E-02 [y] snes_conv_reason:   11
  newton =   1 [      83] linear =   129 [     10848] cuts =  0 [   0]
  --> max chng: dpmx=   9.3412E-01 dtmpmx=   8.9679E-02

== TH FLOW =====================================================================
 Step     75 Time=  3.15000E+00 Dt=  5.00000E-02 [y] snes_conv_reason:   11
  newton =   1 [      84] linear =   128 [     10976] cuts =  0 [   0]
  --> max chng: dpmx=   9.4814E-01 dtmpmx=   8.8385E-02

== TH FLOW =====================================================================
 Step     76 Time=  3.20000E+00 Dt=  5.00000E-02 [y] snes_conv_reason:   11
  newton =   1 [      85] linear =   125 [     11101] cuts =  0 [   0]
  --> max chng: dpmx=   9.6184E-01 dtmpmx=   8.7097E-02

== TH FLOW =====================================================================
 Step     77 Time=  3.25000E+00 Dt=  5.00000E-02 [y] snes_conv_reason:   11
  newton =   1 [      86] linear =   116 [     11217] cuts =  0 [   0]
  --> max chng: dpmx=   9.7578E-01 dtmpmx=   8.5856E-02

== TH FLOW =====================================================================
 Step     78 Time=  3.30000E+00 Dt=  5.00000E-02 [y] snes_conv_reason:   11
  newton =   1 [      87] linear =   126 [     11343] cuts =  0 [   0]
  --> max chng: dpmx=   9.8999E-01 dtmpmx=   8.4684E-02

== TH FLOW =====================================================================
 Step     79 Time=  3.35000E+00 Dt=  5.00000E-02 [y] snes_conv_reason:    3
  newton =   1 [      88] linear =   130 [     11473] cuts =  0 [   0]
  --> max chng: dpmx=   1.0038E+00 dtmpmx=   8.3516E-02

== TH FLOW =====================================================================
 Step     80 Time=  3.40000E+00 Dt=  5.00000E-02 [y] snes_conv_reason:    3
  newton =   1 [      89] linear =   127 [     11600] cuts =  0 [   0]
  --> max chng: dpmx=   1.0180E+00 dtmpmx=   8.2350E-02

== TH FLOW =====================================================================
 Step     81 Time=  3.45000E+00 Dt=  5.00000E-02 [y] snes_conv_reason:    3
  newton =   1 [      90] linear =   132 [     11732] cuts =  0 [   0]
  --> max chng: dpmx=   1.0321E+00 dtmpmx=   8.1280E-02

== TH FLOW =====================================================================
 Step     82 Time=  3.50000E+00 Dt=  5.00000E-02 [y] snes_conv_reason:    3
  newton =   1 [      91] linear =   132 [     11864] cuts =  0 [   0]
  --> max chng: dpmx=   1.0462E+00 dtmpmx=   8.0216E-02

== TH FLOW =====================================================================
 Step     83 Time=  3.55000E+00 Dt=  5.00000E-02 [y] snes_conv_reason:    3
  newton =   1 [      92] linear =   135 [     11999] cuts =  0 [   0]
  --> max chng: dpmx=   1.0604E+00 dtmpmx=   7.9153E-02

== TH FLOW =====================================================================
 Step     84 Time=  3.60000E+00 Dt=  5.00000E-02 [y] snes_conv_reason:    3
  newton =   1 [      93] linear =   135 [     12134] cuts =  0 [   0]
  --> max chng: dpmx=   1.0746E+00 dtmpmx=   7.8137E-02

== TH FLOW =====================================================================
 Step     85 Time=  3.65000E+00 Dt=  5.00000E-02 [y] snes_conv_reason:    3
  newton =   1 [      94] linear =   130 [     12264] cuts =  0 [   0]
  --> max chng: dpmx=   1.0888E+00 dtmpmx=   7.7166E-02

== TH FLOW =====================================================================
 Step     86 Time=  3.70000E+00 Dt=  5.00000E-02 [y] snes_conv_reason:    3
  newton =   1 [      95] linear =   128 [     12392] cuts =  0 [   0]
  --> max chng: dpmx=   1.1031E+00 dtmpmx=   7.6194E-02

== TH FLOW =====================================================================
 Step     87 Time=  3.75000E+00 Dt=  5.00000E-02 [y] snes_conv_reason:    3
  newton =   1 [      96] linear =   133 [     12525] cuts =  0 [   0]
  --> max chng: dpmx=   1.1174E+00 dtmpmx=   7.5228E-02

== TH FLOW =====================================================================
 Step     88 Time=  3.80000E+00 Dt=  5.00000E-02 [y] snes_conv_reason:    3
  newton =   1 [      97] linear =   129 [     12654] cuts =  0 [   0]
  --> max chng: dpmx=   1.1317E+00 dtmpmx=   7.4339E-02

== TH FLOW =====================================================================
 Step     89 Time=  3.85000E+00 Dt=  5.00000E-02 [y] snes_conv_reason:    3
  newton =   1 [      98] linear =   131 [     12785] cuts =  0 [   0]
  --> max chng: dpmx=   1.1461E+00 dtmpmx=   7.3448E-02

== TH FLOW =====================================================================
 Step     90 Time=  3.90000E+00 Dt=  5.00000E-02 [y] snes_conv_reason:    3
  newton =   1 [      99] linear =   129 [     12914] cuts =  0 [   0]
  --> max chng: dpmx=   1.1604E+00 dtmpmx=   7.2557E-02

== TH FLOW =====================================================================
 Step     91 Time=  3.95000E+00 Dt=  5.00000E-02 [y] snes_conv_reason:    3
  newton =   1 [     100] linear =   126 [     13040] cuts =  0 [   0]
  --> max chng: dpmx=   1.1749E+00 dtmpmx=   7.1711E-02

== TH FLOW =====================================================================
 Step     92 Time=  4.00000E+00 Dt=  5.00000E-02 [y] snes_conv_reason:    3
  newton =   1 [     101] linear =   130 [     13170] cuts =  0 [   0]
  --> max chng: dpmx=   1.1893E+00 dtmpmx=   7.0892E-02

== TH FLOW =====================================================================
 Step     93 Time=  4.05000E+00 Dt=  5.00000E-02 [y] snes_conv_reason:    3
  newton =   1 [     102] linear =   134 [     13304] cuts =  0 [   0]
  --> max chng: dpmx=   1.2038E+00 dtmpmx=   7.0072E-02

== TH FLOW =====================================================================
 Step     94 Time=  4.10000E+00 Dt=  5.00000E-02 [y] snes_conv_reason:    3
  newton =   1 [     103] linear =   127 [     13431] cuts =  0 [   0]
  --> max chng: dpmx=   1.2183E+00 dtmpmx=   6.9263E-02

== TH FLOW =====================================================================
 Step     95 Time=  4.15000E+00 Dt=  5.00000E-02 [y] snes_conv_reason:    3
  newton =   1 [     104] linear =   126 [     13557] cuts =  0 [   0]
  --> max chng: dpmx=   1.2329E+00 dtmpmx=   6.8508E-02

== TH FLOW =====================================================================
 Step     96 Time=  4.20000E+00 Dt=  5.00000E-02 [y] snes_conv_reason:    3
  newton =   1 [     105] linear =   129 [     13686] cuts =  0 [   0]
  --> max chng: dpmx=   1.2471E+00 dtmpmx=   6.7751E-02

== TH FLOW =====================================================================
 Step     97 Time=  4.25000E+00 Dt=  5.00000E-02 [y] snes_conv_reason:    3
  newton =   1 [     106] linear =   127 [     13813] cuts =  0 [   0]
  --> max chng: dpmx=   1.2620E+00 dtmpmx=   6.6993E-02

== TH FLOW =====================================================================
 Step     98 Time=  4.30000E+00 Dt=  5.00000E-02 [y] snes_conv_reason:    3
  newton =   1 [     107] linear =   121 [     13934] cuts =  0 [   0]
  --> max chng: dpmx=   1.2764E+00 dtmpmx=   6.6279E-02

== TH FLOW =====================================================================
 Step     99 Time=  4.35000E+00 Dt=  5.00000E-02 [y] snes_conv_reason:    3
  newton =   1 [     108] linear =   131 [     14065] cuts =  0 [   0]
  --> max chng: dpmx=   1.2911E+00 dtmpmx=   6.5579E-02

== TH FLOW =====================================================================
 Step    100 Time=  4.40000E+00 Dt=  5.00000E-02 [y] snes_conv_reason:    3
  newton =   1 [     109] linear =   121 [     14186] cuts =  0 [   0]
  --> max chng: dpmx=   1.3058E+00 dtmpmx=   6.4877E-02

== TH FLOW =====================================================================
 Step    101 Time=  4.45000E+00 Dt=  5.00000E-02 [y] snes_conv_reason:    3
  newton =   1 [     110] linear =   117 [     14303] cuts =  0 [   0]
  --> max chng: dpmx=   1.3200E+00 dtmpmx=   6.4190E-02

== TH FLOW =====================================================================
 Step    102 Time=  4.50000E+00 Dt=  5.00000E-02 [y] snes_conv_reason:    3
  newton =   1 [     111] linear =   126 [     14429] cuts =  0 [   0]
  --> max chng: dpmx=   1.3350E+00 dtmpmx=   6.3542E-02

== TH FLOW =====================================================================
 Step    103 Time=  4.55000E+00 Dt=  5.00000E-02 [y] snes_conv_reason:    3
  newton =   1 [     112] linear =   123 [     14552] cuts =  0 [   0]
  --> max chng: dpmx=   1.3496E+00 dtmpmx=   6.2891E-02

== TH FLOW =====================================================================
 Step    104 Time=  4.60000E+00 Dt=  5.00000E-02 [y] snes_conv_reason:    3
  newton =   1 [     113] linear =   125 [     14677] cuts =  0 [   0]
  --> max chng: dpmx=   1.3642E+00 dtmpmx=   6.2237E-02

== TH FLOW =====================================================================
 Step    105 Time=  4.65000E+00 Dt=  5.00000E-02 [y] snes_conv_reason:    3
  newton =   1 [     114] linear =   126 [     14803] cuts =  0 [   0]
  --> max chng: dpmx=   1.3789E+00 dtmpmx=   6.1627E-02

== TH FLOW =====================================================================
 Step    106 Time=  4.70000E+00 Dt=  5.00000E-02 [y] snes_conv_reason:    3
  newton =   1 [     115] linear =   126 [     14929] cuts =  0 [   0]
  --> max chng: dpmx=   1.3934E+00 dtmpmx=   6.1022E-02

== TH FLOW =====================================================================
 Step    107 Time=  4.75000E+00 Dt=  5.00000E-02 [y] snes_conv_reason:    3
  newton =   1 [     116] linear =   128 [     15057] cuts =  0 [   0]
  --> max chng: dpmx=   1.4080E+00 dtmpmx=   6.0414E-02

== TH FLOW =====================================================================
 Step    108 Time=  4.80000E+00 Dt=  5.00000E-02 [y] snes_conv_reason:    3
  newton =   1 [     117] linear =   128 [     15185] cuts =  0 [   0]
  --> max chng: dpmx=   1.4228E+00 dtmpmx=   5.9824E-02

== TH FLOW =====================================================================
 Step    109 Time=  4.85000E+00 Dt=  5.00000E-02 [y] snes_conv_reason:    3
  newton =   1 [     118] linear =   132 [     15317] cuts =  0 [   0]
  --> max chng: dpmx=   1.4373E+00 dtmpmx=   5.9261E-02

== TH FLOW =====================================================================
 Step    110 Time=  4.90000E+00 Dt=  5.00000E-02 [y] snes_conv_reason:    3
  newton =   1 [     119] linear =   129 [     15446] cuts =  0 [   0]
  --> max chng: dpmx=   1.4518E+00 dtmpmx=   5.8694E-02

== TH FLOW =====================================================================
 Step    111 Time=  4.95000E+00 Dt=  5.00000E-02 [y] snes_conv_reason:    3
  newton =   1 [     120] linear =   128 [     15574] cuts =  0 [   0]
  --> max chng: dpmx=   1.4663E+00 dtmpmx=   5.8125E-02

== TH FLOW =====================================================================
 Step    112 Time=  5.00000E+00 Dt=  5.00000E-02 [y] snes_conv_reason:    3
  newton =   1 [     121] linear =   129 [     15703] cuts =  0 [   0]
  --> max chng: dpmx=   1.4808E+00 dtmpmx=   5.7598E-02

== TH FLOW =====================================================================
 Step    113 Time=  5.05000E+00 Dt=  5.00000E-02 [y] snes_conv_reason:    3
  newton =   1 [     122] linear =   129 [     15832] cuts =  0 [   0]
  --> max chng: dpmx=   1.4948E+00 dtmpmx=   5.7069E-02

== TH FLOW =====================================================================
 Step    114 Time=  5.10000E+00 Dt=  5.00000E-02 [y] snes_conv_reason:    3
  newton =   1 [     123] linear =   118 [     15950] cuts =  0 [   0]
  --> max chng: dpmx=   1.5089E+00 dtmpmx=   5.6538E-02

== TH FLOW =====================================================================
 Step    115 Time=  5.15000E+00 Dt=  5.00000E-02 [y] snes_conv_reason:    3
  newton =   1 [     124] linear =   121 [     16071] cuts =  0 [   0]
  --> max chng: dpmx=   1.5230E+00 dtmpmx=   5.6026E-02

== TH FLOW =====================================================================
 Step    116 Time=  5.20000E+00 Dt=  5.00000E-02 [y] snes_conv_reason:    3
  newton =   1 [     125] linear =   122 [     16193] cuts =  0 [   0]
  --> max chng: dpmx=   1.5367E+00 dtmpmx=   5.5532E-02

== TH FLOW =====================================================================
 Step    117 Time=  5.25000E+00 Dt=  5.00000E-02 [y] snes_conv_reason:    3
  newton =   1 [     126] linear =   120 [     16313] cuts =  0 [   0]
  --> max chng: dpmx=   1.5500E+00 dtmpmx=   5.5035E-02

== TH FLOW =====================================================================
 Step    118 Time=  5.30000E+00 Dt=  5.00000E-02 [y] snes_conv_reason:    3
  newton =   1 [     127] linear =   130 [     16443] cuts =  0 [   0]
  --> max chng: dpmx=   1.5630E+00 dtmpmx=   5.4537E-02

== TH FLOW =====================================================================
 Step    119 Time=  5.35000E+00 Dt=  5.00000E-02 [y] snes_conv_reason:    3
  newton =   1 [     128] linear =   125 [     16568] cuts =  0 [   0]
  --> max chng: dpmx=   1.5757E+00 dtmpmx=   5.4075E-02

== TH FLOW =====================================================================
 Step    120 Time=  5.40000E+00 Dt=  5.00000E-02 [y] snes_conv_reason:    3
  newton =   1 [     129] linear =   129 [     16697] cuts =  0 [   0]
  --> max chng: dpmx=   1.5876E+00 dtmpmx=   5.3609E-02

== TH FLOW =====================================================================
 Step    121 Time=  5.45000E+00 Dt=  5.00000E-02 [y] snes_conv_reason:    3
  newton =   1 [     130] linear =   122 [     16819] cuts =  0 [   0]
  --> max chng: dpmx=   1.5995E+00 dtmpmx=   5.3140E-02

== TH FLOW =====================================================================
 Step    122 Time=  5.50000E+00 Dt=  5.00000E-02 [y] snes_conv_reason:    3
  newton =   1 [     131] linear =   121 [     16940] cuts =  0 [   0]
  --> max chng: dpmx=   1.6096E+00 dtmpmx=   5.2692E-02

== TH FLOW =====================================================================
 Step    123 Time=  5.55000E+00 Dt=  5.00000E-02 [y] snes_conv_reason:    3
  newton =   1 [     132] linear =   128 [     17068] cuts =  0 [   0]
  --> max chng: dpmx=   1.6200E+00 dtmpmx=   5.2255E-02

== TH FLOW =====================================================================
 Step    124 Time=  5.60000E+00 Dt=  5.00000E-02 [y] snes_conv_reason:    3
  newton =   1 [     133] linear =   124 [     17192] cuts =  0 [   0]
  --> max chng: dpmx=   1.6287E+00 dtmpmx=   5.1814E-02

== TH FLOW =====================================================================
 Step    125 Time=  5.65000E+00 Dt=  5.00000E-02 [y] snes_conv_reason:    3
  newton =   1 [     134] linear =   124 [     17316] cuts =  0 [   0]
  --> max chng: dpmx=   1.6367E+00 dtmpmx=   5.1378E-02

== TH FLOW =====================================================================
 Step    126 Time=  5.70000E+00 Dt=  5.00000E-02 [y] snes_conv_reason:    3
  newton =   1 [     135] linear =   117 [     17433] cuts =  0 [   0]
  --> max chng: dpmx=   1.6433E+00 dtmpmx=   5.0967E-02

== TH FLOW =====================================================================
 Step    127 Time=  5.75000E+00 Dt=  5.00000E-02 [y] snes_conv_reason:    3
  newton =   1 [     136] linear =   121 [     17554] cuts =  0 [   0]
  --> max chng: dpmx=   1.6479E+00 dtmpmx=   5.0553E-02

== TH FLOW =====================================================================
 Step    128 Time=  5.80000E+00 Dt=  5.00000E-02 [y] snes_conv_reason:    3
  newton =   1 [     137] linear =   125 [     17679] cuts =  0 [   0]
  --> max chng: dpmx=   1.6517E+00 dtmpmx=   5.0136E-02

== TH FLOW =====================================================================
 Step    129 Time=  5.85000E+00 Dt=  5.00000E-02 [y] snes_conv_reason:    3
  newton =   1 [     138] linear =   127 [     17806] cuts =  0 [   0]
  --> max chng: dpmx=   1.6534E+00 dtmpmx=   4.9741E-02

== TH FLOW =====================================================================
 Step    130 Time=  5.90000E+00 Dt=  5.00000E-02 [y] snes_conv_reason:    3
  newton =   1 [     139] linear =   126 [     17932] cuts =  0 [   0]
  --> max chng: dpmx=   1.6529E+00 dtmpmx=   4.9351E-02

== TH FLOW =====================================================================
 Step    131 Time=  5.95000E+00 Dt=  5.00000E-02 [y] snes_conv_reason:    3
  newton =   1 [     140] linear =   126 [     18058] cuts =  0 [   0]
  --> max chng: dpmx=   1.6505E+00 dtmpmx=   4.8958E-02

== TH FLOW =====================================================================
 Step    132 Time=  6.00000E+00 Dt=  5.00000E-02 [y] snes_conv_reason:    3
  newton =   1 [     141] linear =   126 [     18184] cuts =  0 [   0]
  --> max chng: dpmx=   1.6454E+00 dtmpmx=   4.8571E-02

== TH FLOW =====================================================================
 Step    133 Time=  6.05000E+00 Dt=  5.00000E-02 [y] snes_conv_reason:    3
  newton =   1 [     142] linear =   126 [     18310] cuts =  0 [   0]
  --> max chng: dpmx=   1.6379E+00 dtmpmx=   4.8204E-02

== TH FLOW =====================================================================
 Step    134 Time=  6.10000E+00 Dt=  5.00000E-02 [y] snes_conv_reason:    3
  newton =   1 [     143] linear =   129 [     18439] cuts =  0 [   0]
  --> max chng: dpmx=   1.6276E+00 dtmpmx=   4.7833E-02

== TH FLOW =====================================================================
 Step    135 Time=  6.15000E+00 Dt=  5.00000E-02 [y] snes_conv_reason:    3
  newton =   1 [     144] linear =   128 [     18567] cuts =  0 [   0]
  --> max chng: dpmx=   1.6145E+00 dtmpmx=   4.7460E-02

== TH FLOW =====================================================================
 Step    136 Time=  6.20000E+00 Dt=  5.00000E-02 [y] snes_conv_reason:    3
  newton =   1 [     145] linear =   127 [     18694] cuts =  0 [   0]
  --> max chng: dpmx=   1.5983E+00 dtmpmx=   4.7108E-02

== TH FLOW =====================================================================
 Step    137 Time=  6.25000E+00 Dt=  5.00000E-02 [y] snes_conv_reason:    3
  newton =   1 [     146] linear =   125 [     18819] cuts =  0 [   0]
  --> max chng: dpmx=   1.5788E+00 dtmpmx=   4.6758E-02

== TH FLOW =====================================================================
 Step    138 Time=  6.30000E+00 Dt=  5.00000E-02 [y] snes_conv_reason:    3
  newton =   1 [     147] linear =   124 [     18943] cuts =  0 [   0]
  --> max chng: dpmx=   1.5563E+00 dtmpmx=   4.6405E-02

== TH FLOW =====================================================================
 Step    139 Time=  6.35000E+00 Dt=  5.00000E-02 [y] snes_conv_reason:    3
  newton =   1 [     148] linear =   123 [     19066] cuts =  0 [   0]
  --> max chng: dpmx=   1.5302E+00 dtmpmx=   4.6060E-02

== TH FLOW =====================================================================
 Step    140 Time=  6.40000E+00 Dt=  5.00000E-02 [y] snes_conv_reason:    3
  newton =   1 [     149] linear =   122 [     19188] cuts =  0 [   0]
  --> max chng: dpmx=   1.5014E+00 dtmpmx=   4.5730E-02

== TH FLOW =====================================================================
 Step    141 Time=  6.45000E+00 Dt=  5.00000E-02 [y] snes_conv_reason:    3
  newton =   1 [     150] linear =   124 [     19312] cuts =  0 [   0]
  --> max chng: dpmx=   1.4684E+00 dtmpmx=   4.5396E-02

== TH FLOW =====================================================================
 Step    142 Time=  6.50000E+00 Dt=  5.00000E-02 [y] snes_conv_reason:    3
  newton =   1 [     151] linear =   128 [     19440] cuts =  0 [   0]
  --> max chng: dpmx=   1.4328E+00 dtmpmx=   4.5059E-02

== TH FLOW =====================================================================
 Step    143 Time=  6.55000E+00 Dt=  5.00000E-02 [y] snes_conv_reason:    3
  newton =   1 [     152] linear =   128 [     19568] cuts =  0 [   0]
  --> max chng: dpmx=   1.3937E+00 dtmpmx=   4.4744E-02

== TH FLOW =====================================================================
 Step    144 Time=  6.60000E+00 Dt=  5.00000E-02 [y] snes_conv_reason:    3
  newton =   1 [     153] linear =   127 [     19695] cuts =  0 [   0]
  --> max chng: dpmx=   1.3519E+00 dtmpmx=   4.4428E-02

== TH FLOW =====================================================================
 Step    145 Time=  6.65000E+00 Dt=  5.00000E-02 [y] snes_conv_reason:    3
  newton =   1 [     154] linear =   131 [     19826] cuts =  0 [   0]
  --> max chng: dpmx=   1.3074E+00 dtmpmx=   4.4108E-02

== TH FLOW =====================================================================
 Step    146 Time=  6.70000E+00 Dt=  5.00000E-02 [y] snes_conv_reason:    3
  newton =   1 [     155] linear =   128 [     19954] cuts =  0 [   0]
  --> max chng: dpmx=   1.2599E+00 dtmpmx=   4.3799E-02

== TH FLOW =====================================================================
 Step    147 Time=  6.75000E+00 Dt=  5.00000E-02 [y] snes_conv_reason:    3
  newton =   1 [     156] linear =   131 [     20085] cuts =  0 [   0]
  --> max chng: dpmx=   1.2105E+00 dtmpmx=   4.3499E-02

== TH FLOW =====================================================================
 Step    148 Time=  6.80000E+00 Dt=  5.00000E-02 [y] snes_conv_reason:    3
  newton =   1 [     157] linear =   130 [     20215] cuts =  0 [   0]
  --> max chng: dpmx=   1.1590E+00 dtmpmx=   4.3196E-02

== TH FLOW =====================================================================
 Step    149 Time=  6.85000E+00 Dt=  5.00000E-02 [y] snes_conv_reason:    3
  newton =   1 [     158] linear =   123 [     20338] cuts =  0 [   0]
  --> max chng: dpmx=   1.1060E+00 dtmpmx=   4.2891E-02

== TH FLOW =====================================================================
 Step    150 Time=  6.90000E+00 Dt=  5.00000E-02 [y] snes_conv_reason:    3
  newton =   1 [     159] linear =   125 [     20463] cuts =  0 [   0]
  --> max chng: dpmx=   1.0515E+00 dtmpmx=   4.2607E-02

== TH FLOW =====================================================================
 Step    151 Time=  6.95000E+00 Dt=  5.00000E-02 [y] snes_conv_reason:   11
  newton =   1 [     160] linear =   128 [     20591] cuts =  0 [   0]
  --> max chng: dpmx=   9.9643E-01 dtmpmx=   4.2320E-02

== TH FLOW =====================================================================
 Step    152 Time=  7.00000E+00 Dt=  5.00000E-02 [y] snes_conv_reason:   11
  newton =   1 [     161] linear =   127 [     20718] cuts =  0 [   0]
  --> max chng: dpmx=   9.4041E-01 dtmpmx=   4.2015E-02

== TH FLOW =====================================================================
 Step    153 Time=  7.05000E+00 Dt=  5.00000E-02 [y] snes_conv_reason:   11
  newton =   1 [     162] linear =   130 [     20848] cuts =  0 [   0]
  --> max chng: dpmx=   8.8455E-01 dtmpmx=   4.1530E-02

== TH FLOW =====================================================================
 Step    154 Time=  7.10000E+00 Dt=  5.00000E-02 [y] snes_conv_reason:   11
  newton =   1 [     163] linear =   131 [     20979] cuts =  0 [   0]
  --> max chng: dpmx=   8.2886E-01 dtmpmx=   4.0821E-02

== TH FLOW =====================================================================
 Step    155 Time=  7.15000E+00 Dt=  5.00000E-02 [y] snes_conv_reason:   11
  newton =   1 [     164] linear =   133 [     21112] cuts =  0 [   0]
  --> max chng: dpmx=   7.7374E-01 dtmpmx=   3.9904E-02

== TH FLOW =====================================================================
 Step    156 Time=  7.20000E+00 Dt=  5.00000E-02 [y] snes_conv_reason:   11
  newton =   1 [     165] linear =   132 [     21244] cuts =  0 [   0]
  --> max chng: dpmx=   7.1964E-01 dtmpmx=   3.8796E-02

== TH FLOW =====================================================================
 Step    157 Time=  7.25000E+00 Dt=  5.00000E-02 [y] snes_conv_reason:   11
  newton =   1 [     166] linear =   132 [     21376] cuts =  0 [   0]
  --> max chng: dpmx=   6.6652E-01 dtmpmx=   3.7623E-02

== TH FLOW =====================================================================
 Step    158 Time=  7.30000E+00 Dt=  5.00000E-02 [y] snes_conv_reason:   11
  newton =   1 [     167] linear =   133 [     21509] cuts =  0 [   0]
  --> max chng: dpmx=   6.1522E-01 dtmpmx=   3.6306E-02

== TH FLOW =====================================================================
 Step    159 Time=  7.35000E+00 Dt=  5.00000E-02 [y] snes_conv_reason:   11
  newton =   1 [     168] linear =   132 [     21641] cuts =  0 [   0]
  --> max chng: dpmx=   5.6557E-01 dtmpmx=   3.4852E-02

== TH FLOW =====================================================================
 Step    160 Time=  7.40000E+00 Dt=  5.00000E-02 [y] snes_conv_reason:   11
  newton =   1 [     169] linear =   135 [     21776] cuts =  0 [   0]
  --> max chng: dpmx=   5.1799E-01 dtmpmx=   3.3284E-02

== TH FLOW =====================================================================
 Step    161 Time=  7.45000E+00 Dt=  5.00000E-02 [y] snes_conv_reason:   11
  newton =   1 [     170] linear =   134 [     21910] cuts =  0 [   0]
  --> max chng: dpmx=   4.7268E-01 dtmpmx=   3.1625E-02

== TH FLOW =====================================================================
 Step    162 Time=  7.50000E+00 Dt=  5.00000E-02 [y] snes_conv_reason:   11
  newton =   1 [     171] linear =   134 [     22044] cuts =  0 [   0]
  --> max chng: dpmx=   4.2938E-01 dtmpmx=   2.9899E-02

== TH FLOW =====================================================================
 Step    163 Time=  7.55000E+00 Dt=  5.00000E-02 [y] snes_conv_reason:   11
  newton =   1 [     172] linear =   132 [     22176] cuts =  0 [   0]
  --> max chng: dpmx=   3.8884E-01 dtmpmx=   2.8129E-02

== TH FLOW =====================================================================
 Step    164 Time=  7.60000E+00 Dt=  5.00000E-02 [y] snes_conv_reason:   11
  newton =   1 [     173] linear =   134 [     22310] cuts =  0 [   0]
  --> max chng: dpmx=   3.5066E-01 dtmpmx=   2.6336E-02

== TH FLOW =====================================================================
 Step    165 Time=  7.65000E+00 Dt=  5.00000E-02 [y] snes_conv_reason:   11
  newton =   1 [     174] linear =   134 [     22444] cuts =  0 [   0]
  --> max chng: dpmx=   3.1501E-01 dtmpmx=   2.4540E-02

== TH FLOW =====================================================================
 Step    166 Time=  7.70000E+00 Dt=  5.00000E-02 [y] snes_conv_reason:   11
  newton =   1 [     175] linear =   134 [     22578] cuts =  0 [   0]
  --> max chng: dpmx=   2.8193E-01 dtmpmx=   2.2760E-02

== TH FLOW =====================================================================
 Step    167 Time=  7.75000E+00 Dt=  5.00000E-02 [y] snes_conv_reason:   11
  newton =   1 [     176] linear =   135 [     22713] cuts =  0 [   0]
  --> max chng: dpmx=   2.5137E-01 dtmpmx=   2.1012E-02

== TH FLOW =====================================================================
 Step    168 Time=  7.80000E+00 Dt=  5.00000E-02 [y] snes_conv_reason:   11
  newton =   1 [     177] linear =   131 [     22844] cuts =  0 [   0]
  --> max chng: dpmx=   2.2325E-01 dtmpmx=   1.9311E-02

== TH FLOW =====================================================================
 Step    169 Time=  7.85000E+00 Dt=  5.00000E-02 [y] snes_conv_reason:   11
  newton =   1 [     178] linear =   134 [     22978] cuts =  0 [   0]
  --> max chng: dpmx=   1.9750E-01 dtmpmx=   1.7668E-02

== TH FLOW =====================================================================
 Step    170 Time=  7.90000E+00 Dt=  5.00000E-02 [y] snes_conv_reason:   11
  newton =   1 [     179] linear =   135 [     23113] cuts =  0 [   0]
  --> max chng: dpmx=   1.7409E-01 dtmpmx=   1.6094E-02

== TH FLOW =====================================================================
 Step    171 Time=  7.95000E+00 Dt=  5.00000E-02 [y] snes_conv_reason:   11
  newton =   1 [     180] linear =   135 [     23248] cuts =  0 [   0]
  --> max chng: dpmx=   1.5287E-01 dtmpmx=   1.4597E-02

== TH FLOW =====================================================================
 Step    172 Time=  8.00000E+00 Dt=  5.00000E-02 [y] snes_conv_reason:   11
  newton =   1 [     181] linear =   134 [     23382] cuts =  0 [   0]
  --> max chng: dpmx=   1.3373E-01 dtmpmx=   1.3183E-02

== TH FLOW =====================================================================
 Step    173 Time=  8.05000E+00 Dt=  5.00000E-02 [y] snes_conv_reason:   11
  newton =   1 [     182] linear =   136 [     23518] cuts =  0 [   0]
  --> max chng: dpmx=   1.1652E-01 dtmpmx=   1.1856E-02

== TH FLOW =====================================================================
 Step    174 Time=  8.10000E+00 Dt=  5.00000E-02 [y] snes_conv_reason:   11
  newton =   1 [     183] linear =   137 [     23655] cuts =  0 [   0]
  --> max chng: dpmx=   1.0116E-01 dtmpmx=   1.0619E-02

== TH FLOW =====================================================================
 Step    175 Time=  8.15000E+00 Dt=  5.00000E-02 [y] snes_conv_reason:   11
  newton =   1 [     184] linear =   137 [     23792] cuts =  0 [   0]
  --> max chng: dpmx=   8.7478E-02 dtmpmx=   9.4709E-03

== TH FLOW =====================================================================
 Step    176 Time=  8.20000E+00 Dt=  5.00000E-02 [y] snes_conv_reason:   11
  newton =   1 [     185] linear =   137 [     23929] cuts =  0 [   0]
  --> max chng: dpmx=   7.5360E-02 dtmpmx=   8.4131E-03

== TH FLOW =====================================================================
 Step    177 Time=  8.25000E+00 Dt=  5.00000E-02 [y] snes_conv_reason:   11
  newton =   1 [     186] linear =   138 [     24067] cuts =  0 [   0]
  --> max chng: dpmx=   6.4668E-02 dtmpmx=   7.4432E-03

== TH FLOW =====================================================================
 Step    178 Time=  8.30000E+00 Dt=  5.00000E-02 [y] snes_conv_reason:   11
  newton =   1 [     187] linear =   138 [     24205] cuts =  0 [   0]
  --> max chng: dpmx=   5.5276E-02 dtmpmx=   6.5589E-03

== TH FLOW =====================================================================
 Step    179 Time=  8.35000E+00 Dt=  5.00000E-02 [y] snes_conv_reason:   11
  newton =   1 [     188] linear =   141 [     24346] cuts =  0 [   0]
  --> max chng: dpmx=   4.7064E-02 dtmpmx=   5.7566E-03

== TH FLOW =====================================================================
 Step    180 Time=  8.40000E+00 Dt=  5.00000E-02 [y] snes_conv_reason:   11
  newton =   1 [     189] linear =   140 [     24486] cuts =  0 [   0]
  --> max chng: dpmx=   3.9915E-02 dtmpmx=   5.0325E-03

== TH FLOW =====================================================================
 Step    181 Time=  8.45000E+00 Dt=  5.00000E-02 [y] snes_conv_reason:   11
  newton =   1 [     190] linear =   138 [     24624] cuts =  0 [   0]
  --> max chng: dpmx=   3.3700E-02 dtmpmx=   4.3820E-03

== TH FLOW =====================================================================
 Step    182 Time=  8.50000E+00 Dt=  5.00000E-02 [y] snes_conv_reason:   11
  newton =   1 [     191] linear =   138 [     24762] cuts =  0 [   0]
  --> max chng: dpmx=   2.8340E-02 dtmpmx=   3.8005E-03

== TH FLOW =====================================================================
 Step    183 Time=  8.55000E+00 Dt=  5.00000E-02 [y] snes_conv_reason:   11
  newton =   1 [     192] linear =   136 [     24898] cuts =  0 [   0]
  --> max chng: dpmx=   2.3723E-02 dtmpmx=   3.2830E-03

== TH FLOW =====================================================================
 Step    184 Time=  8.60000E+00 Dt=  5.00000E-02 [y] snes_conv_reason:   11
  newton =   1 [     193] linear =   136 [     25034] cuts =  0 [   0]
  --> max chng: dpmx=   1.9781E-02 dtmpmx=   2.8246E-03

== TH FLOW =====================================================================
 Step    185 Time=  8.65000E+00 Dt=  5.00000E-02 [y] snes_conv_reason:   11
  newton =   1 [     194] linear =   137 [     25171] cuts =  0 [   0]
  --> max chng: dpmx=   1.6413E-02 dtmpmx=   2.4203E-03

== TH FLOW =====================================================================
 Step    186 Time=  8.70000E+00 Dt=  5.00000E-02 [y] snes_conv_reason:   11
  newton =   1 [     195] linear =   138 [     25309] cuts =  0 [   0]
  --> max chng: dpmx=   1.3550E-02 dtmpmx=   2.0653E-03

== TH FLOW =====================================================================
 Step    187 Time=  8.75000E+00 Dt=  5.00000E-02 [y] snes_conv_reason:   11
  newton =   1 [     196] linear =   139 [     25448] cuts =  0 [   0]
  --> max chng: dpmx=   1.1131E-02 dtmpmx=   1.7548E-03

== TH FLOW =====================================================================
 Step    188 Time=  8.80000E+00 Dt=  5.00000E-02 [y] snes_conv_reason:   11
  newton =   1 [     197] linear =   142 [     25590] cuts =  0 [   0]
  --> max chng: dpmx=   9.0922E-03 dtmpmx=   1.4844E-03

== TH FLOW =====================================================================
 Step    189 Time=  8.85000E+00 Dt=  5.00000E-02 [y] snes_conv_reason:   11
  newton =   1 [     198] linear =   136 [     25726] cuts =  0 [   0]
  --> max chng: dpmx=   7.3869E-03 dtmpmx=   1.2499E-03

== TH FLOW =====================================================================
 Step    190 Time=  8.90000E+00 Dt=  5.00000E-02 [y] snes_conv_reason:   11
  newton =   1 [     199] linear =   138 [     25864] cuts =  0 [   0]
  --> max chng: dpmx=   5.9626E-03 dtmpmx=   1.0474E-03

== TH FLOW =====================================================================
 Step    191 Time=  8.95000E+00 Dt=  5.00000E-02 [y] snes_conv_reason:   11
  newton =   1 [     200] linear =   137 [     26001] cuts =  0 [   0]
  --> max chng: dpmx=   4.7807E-03 dtmpmx=   8.7310E-04

== TH FLOW =====================================================================
 Step    192 Time=  9.00000E+00 Dt=  5.00000E-02 [y] snes_conv_reason:   11
  newton =   1 [     201] linear =   138 [     26139] cuts =  0 [   0]
  --> max chng: dpmx=   3.8042E-03 dtmpmx=   7.2372E-04

== TH FLOW =====================================================================
 Step    193 Time=  9.05000E+00 Dt=  5.00000E-02 [y] snes_conv_reason:   11
  newton =   1 [     202] linear =   136 [     26275] cuts =  0 [   0]
  --> max chng: dpmx=   3.2960E-03 dtmpmx=   5.9617E-04

== TH FLOW =====================================================================
 Step    194 Time=  9.10000E+00 Dt=  5.00000E-02 [y] snes_conv_reason:   11
  newton =   1 [     203] linear =   138 [     26413] cuts =  0 [   0]
  --> max chng: dpmx=   3.5917E-03 dtmpmx=   4.8767E-04

== TH FLOW =====================================================================
 Step    195 Time=  9.15000E+00 Dt=  5.00000E-02 [y] snes_conv_reason:   11
  newton =   1 [     204] linear =   138 [     26551] cuts =  0 [   0]
  --> max chng: dpmx=   3.8439E-03 dtmpmx=   3.9571E-04

== TH FLOW =====================================================================
 Step    196 Time=  9.20000E+00 Dt=  5.00000E-02 [y] snes_conv_reason:   11
  newton =   1 [     205] linear =   135 [     26686] cuts =  0 [   0]
  --> max chng: dpmx=   4.0571E-03 dtmpmx=   3.1805E-04

== TH FLOW =====================================================================
 Step    197 Time=  9.25000E+00 Dt=  5.00000E-02 [y] snes_conv_reason:   11
  newton =   1 [     206] linear =   138 [     26824] cuts =  0 [   0]
  --> max chng: dpmx=   4.2374E-03 dtmpmx=   2.5270E-04

== TH FLOW =====================================================================
 Step    198 Time=  9.30000E+00 Dt=  5.00000E-02 [y] snes_conv_reason:   11
  newton =   1 [     207] linear =   139 [     26963] cuts =  0 [   0]
  --> max chng: dpmx=   4.3881E-03 dtmpmx=   1.9790E-04

== TH FLOW =====================================================================
 Step    199 Time=  9.35000E+00 Dt=  5.00000E-02 [y] snes_conv_reason:   11
  newton =   1 [     208] linear =   135 [     27098] cuts =  0 [   0]
  --> max chng: dpmx=   4.5133E-03 dtmpmx=   1.5211E-04

== TH FLOW =====================================================================
 Step    200 Time=  9.40000E+00 Dt=  5.00000E-02 [y] snes_conv_reason:   11
  newton =   1 [     209] linear =   124 [     27222] cuts =  0 [   0]
  --> max chng: dpmx=   4.6169E-03 dtmpmx=   1.1396E-04

== TH FLOW =====================================================================
 Step    201 Time=  9.45000E+00 Dt=  5.00000E-02 [y] snes_conv_reason:   11
  newton =   1 [     210] linear =   125 [     27347] cuts =  0 [   0]
  --> max chng: dpmx=   4.7022E-03 dtmpmx=   8.2286E-05

== TH FLOW =====================================================================
 Step    202 Time=  9.50000E+00 Dt=  5.00000E-02 [y] snes_conv_reason:   11
  newton =   1 [     211] linear =   129 [     27476] cuts =  0 [   0]
  --> max chng: dpmx=   4.7717E-03 dtmpmx=   7.1721E-05

== TH FLOW =====================================================================
 Step    203 Time=  9.55000E+00 Dt=  5.00000E-02 [y] snes_conv_reason:   11
  newton =   1 [     212] linear =   125 [     27601] cuts =  0 [   0]
  --> max chng: dpmx=   4.8284E-03 dtmpmx=   7.1521E-05

== TH FLOW =====================================================================
 Step    204 Time=  9.60000E+00 Dt=  5.00000E-02 [y] snes_conv_reason:   11
  newton =   1 [     213] linear =   113 [     27714] cuts =  0 [   0]
  --> max chng: dpmx=   4.8726E-03 dtmpmx=   7.1324E-05

== TH FLOW =====================================================================
 Step    205 Time=  9.65000E+00 Dt=  5.00000E-02 [y] snes_conv_reason:   11
  newton =   1 [     214] linear =   124 [     27838] cuts =  0 [   0]
  --> max chng: dpmx=   4.9090E-03 dtmpmx=   7.1131E-05

== TH FLOW =====================================================================
 Step    206 Time=  9.70000E+00 Dt=  5.00000E-02 [y] snes_conv_reason:   11
  newton =   1 [     215] linear =   125 [     27963] cuts =  0 [   0]
  --> max chng: dpmx=   4.9359E-03 dtmpmx=   7.0998E-05

== TH FLOW =====================================================================
 Step    207 Time=  9.75000E+00 Dt=  5.00000E-02 [y] snes_conv_reason:   11
  newton =   1 [     216] linear =   129 [     28092] cuts =  0 [   0]
  --> max chng: dpmx=   4.9562E-03 dtmpmx=   7.0950E-05

== TH FLOW =====================================================================
 Step    208 Time=  9.80000E+00 Dt=  5.00000E-02 [y] snes_conv_reason:   11
  newton =   1 [     217] linear =   121 [     28213] cuts =  0 [   0]
  --> max chng: dpmx=   4.9710E-03 dtmpmx=   7.0900E-05

== TH FLOW =====================================================================
 Step    209 Time=  9.85000E+00 Dt=  5.00000E-02 [y] snes_conv_reason:   11
  newton =   1 [     218] linear =   108 [     28321] cuts =  0 [   0]
  --> max chng: dpmx=   4.9807E-03 dtmpmx=   7.0846E-05

== TH FLOW =====================================================================
 Step    210 Time=  9.90000E+00 Dt=  5.00000E-02 [y] snes_conv_reason:   11
  newton =   1 [     219] linear =   121 [     28442] cuts =  0 [   0]
  --> max chng: dpmx=   4.9855E-03 dtmpmx=   7.0790E-05

== TH FLOW =====================================================================
 Step    211 Time=  9.95000E+00 Dt=  5.00000E-02 [y] snes_conv_reason:   11
  newton =   1 [     220] linear =   119 [     28561] cuts =  0 [   0]
  --> max chng: dpmx=   4.9873E-03 dtmpmx=   7.0732E-05

== TH FLOW =====================================================================
 Step    212 Time=  1.00000E+01 Dt=  5.00000E-02 [y] snes_conv_reason:   11
  newton =   1 [     221] linear =   114 [     28675] cuts =  0 [   0]
  --> max chng: dpmx=   4.9844E-03 dtmpmx=   7.0670E-05

== TH FLOW =====================================================================
 Step    213 Time=  1.00500E+01 Dt=  5.00000E-02 [y] snes_conv_reason:   11
  newton =   1 [     222] linear =   127 [     28802] cuts =  0 [   0]
  --> max chng: dpmx=   4.9791E-03 dtmpmx=   7.0607E-05

== TH FLOW =====================================================================
 Step    214 Time=  1.01000E+01 Dt=  5.00000E-02 [y] snes_conv_reason:   11
  newton =   1 [     223] linear =   121 [     28923] cuts =  0 [   0]
  --> max chng: dpmx=   4.9704E-03 dtmpmx=   7.0541E-05

== TH FLOW =====================================================================
 Step    215 Time=  1.01500E+01 Dt=  5.00000E-02 [y] snes_conv_reason:   11
  newton =   1 [     224] linear =   121 [     29044] cuts =  0 [   0]
  --> max chng: dpmx=   4.9603E-03 dtmpmx=   7.0473E-05

== TH FLOW =====================================================================
 Step    216 Time=  1.02000E+01 Dt=  5.00000E-02 [y] snes_conv_reason:   11
  newton =   1 [     225] linear =   121 [     29165] cuts =  0 [   0]
  --> max chng: dpmx=   4.9463E-03 dtmpmx=   7.0403E-05

== TH FLOW =====================================================================
 Step    217 Time=  1.02500E+01 Dt=  5.00000E-02 [y] snes_conv_reason:   11
  newton =   1 [     226] linear =   114 [     29279] cuts =  0 [   0]
  --> max chng: dpmx=   4.9307E-03 dtmpmx=   7.0331E-05

== TH FLOW =====================================================================
 Step    218 Time=  1.03000E+01 Dt=  5.00000E-02 [y] snes_conv_reason:   11
  newton =   1 [     227] linear =   121 [     29400] cuts =  0 [   0]
  --> max chng: dpmx=   4.9123E-03 dtmpmx=   7.0257E-05

== TH FLOW =====================================================================
 Step    219 Time=  1.03500E+01 Dt=  5.00000E-02 [y] snes_conv_reason:   11
  newton =   1 [     228] linear =   121 [     29521] cuts =  0 [   0]
  --> max chng: dpmx=   4.8930E-03 dtmpmx=   7.0182E-05

== TH FLOW =====================================================================
 Step    220 Time=  1.04000E+01 Dt=  5.00000E-02 [y] snes_conv_reason:   11
  newton =   1 [     229] linear =   118 [     29639] cuts =  0 [   0]
  --> max chng: dpmx=   4.8699E-03 dtmpmx=   7.0104E-05

== TH FLOW =====================================================================
 Step    221 Time=  1.04500E+01 Dt=  5.00000E-02 [y] snes_conv_reason:   11
  newton =   1 [     230] linear =   118 [     29757] cuts =  0 [   0]
  --> max chng: dpmx=   4.8460E-03 dtmpmx=   7.0026E-05

== TH FLOW =====================================================================
 Step    222 Time=  1.05000E+01 Dt=  5.00000E-02 [y] snes_conv_reason:   11
  newton =   1 [     231] linear =   117 [     29874] cuts =  0 [   0]
  --> max chng: dpmx=   4.8200E-03 dtmpmx=   6.9945E-05

== TH FLOW =====================================================================
 Step    223 Time=  1.05500E+01 Dt=  5.00000E-02 [y] snes_conv_reason:   11
  newton =   1 [     232] linear =   117 [     29991] cuts =  0 [   0]
  --> max chng: dpmx=   4.7911E-03 dtmpmx=   6.9864E-05

== TH FLOW =====================================================================
 Step    224 Time=  1.06000E+01 Dt=  5.00000E-02 [y] snes_conv_reason:   11
  newton =   1 [     233] linear =   112 [     30103] cuts =  0 [   0]
  --> max chng: dpmx=   4.7614E-03 dtmpmx=   6.9781E-05

== TH FLOW =====================================================================
 Step    225 Time=  1.06500E+01 Dt=  5.00000E-02 [y] snes_conv_reason:   11
  newton =   1 [     234] linear =   114 [     30217] cuts =  0 [   0]
  --> max chng: dpmx=   4.7292E-03 dtmpmx=   6.9698E-05

== TH FLOW =====================================================================
 Step    226 Time=  1.07000E+01 Dt=  5.00000E-02 [y] snes_conv_reason:   11
  newton =   1 [     235] linear =   125 [     30342] cuts =  0 [   0]
  --> max chng: dpmx=   4.6947E-03 dtmpmx=   6.9613E-05

== TH FLOW =====================================================================
 Step    227 Time=  1.07500E+01 Dt=  5.00000E-02 [y] snes_conv_reason:   11
  newton =   1 [     236] linear =   123 [     30465] cuts =  0 [   0]
  --> max chng: dpmx=   4.6594E-03 dtmpmx=   6.9527E-05

== TH FLOW =====================================================================
 Step    228 Time=  1.08000E+01 Dt=  5.00000E-02 [y] snes_conv_reason:   11
  newton =   1 [     237] linear =   121 [     30586] cuts =  0 [   0]
  --> max chng: dpmx=   4.6214E-03 dtmpmx=   6.9440E-05

== TH FLOW =====================================================================
 Step    229 Time=  1.08500E+01 Dt=  5.00000E-02 [y] snes_conv_reason:   11
  newton =   1 [     238] linear =   121 [     30707] cuts =  0 [   0]
  --> max chng: dpmx=   4.5817E-03 dtmpmx=   6.9352E-05

== TH FLOW =====================================================================
 Step    230 Time=  1.09000E+01 Dt=  5.00000E-02 [y] snes_conv_reason:   11
  newton =   1 [     239] linear =   121 [     30828] cuts =  0 [   0]
  --> max chng: dpmx=   4.5402E-03 dtmpmx=   6.9263E-05

== TH FLOW =====================================================================
 Step    231 Time=  1.09500E+01 Dt=  5.00000E-02 [y] snes_conv_reason:   11
  newton =   1 [     240] linear =   121 [     30949] cuts =  0 [   0]
  --> max chng: dpmx=   4.4968E-03 dtmpmx=   6.9173E-05

== TH FLOW =====================================================================
 Step    232 Time=  1.10000E+01 Dt=  5.00000E-02 [y] snes_conv_reason:   11
  newton =   1 [     241] linear =   120 [     31069] cuts =  0 [   0]
  --> max chng: dpmx=   4.4513E-03 dtmpmx=   6.9082E-05

== TH FLOW =====================================================================
 Step    233 Time=  1.10500E+01 Dt=  5.00000E-02 [y] snes_conv_reason:   11
  newton =   1 [     242] linear =   119 [     31188] cuts =  0 [   0]
  --> max chng: dpmx=   4.4052E-03 dtmpmx=   6.8990E-05

== TH FLOW =====================================================================
 Step    234 Time=  1.11000E+01 Dt=  5.00000E-02 [y] snes_conv_reason:   11
  newton =   1 [     243] linear =   101 [     31289] cuts =  0 [   0]
  --> max chng: dpmx=   4.3557E-03 dtmpmx=   6.8898E-05

== TH FLOW =====================================================================
 Step    235 Time=  1.11500E+01 Dt=  5.00000E-02 [y] snes_conv_reason:   11
  newton =   1 [     244] linear =   117 [     31406] cuts =  0 [   0]
  --> max chng: dpmx=   4.3055E-03 dtmpmx=   6.8805E-05

== TH FLOW =====================================================================
 Step    236 Time=  1.12000E+01 Dt=  5.00000E-02 [y] snes_conv_reason:   11
  newton =   1 [     245] linear =   103 [     31509] cuts =  0 [   0]
  --> max chng: dpmx=   4.2528E-03 dtmpmx=   6.8711E-05

== TH FLOW =====================================================================
 Step    237 Time=  1.12500E+01 Dt=  5.00000E-02 [y] snes_conv_reason:   11
  newton =   1 [     246] linear =   115 [     31624] cuts =  0 [   0]
  --> max chng: dpmx=   4.1995E-03 dtmpmx=   6.8616E-05

== TH FLOW =====================================================================
 Step    238 Time=  1.13000E+01 Dt=  5.00000E-02 [y] snes_conv_reason:   11
  newton =   1 [     247] linear =   114 [     31738] cuts =  0 [   0]
  --> max chng: dpmx=   4.1434E-03 dtmpmx=   6.8521E-05

== TH FLOW =====================================================================
 Step    239 Time=  1.13500E+01 Dt=  5.00000E-02 [y] snes_conv_reason:   11
  newton =   1 [     248] linear =   112 [     31850] cuts =  0 [   0]
  --> max chng: dpmx=   4.0861E-03 dtmpmx=   6.8427E-05

== TH FLOW =====================================================================
 Step    240 Time=  1.14000E+01 Dt=  5.00000E-02 [y] snes_conv_reason:   11
  newton =   1 [     249] linear =   122 [     31972] cuts =  0 [   0]
  --> max chng: dpmx=   4.0267E-03 dtmpmx=   6.8331E-05

== TH FLOW =====================================================================
 Step    241 Time=  1.14500E+01 Dt=  5.00000E-02 [y] snes_conv_reason:   11
  newton =   1 [     250] linear =   108 [     32080] cuts =  0 [   0]
  --> max chng: dpmx=   3.9670E-03 dtmpmx=   6.8235E-05

== TH FLOW =====================================================================
 Step    242 Time=  1.15000E+01 Dt=  5.00000E-02 [y] snes_conv_reason:   11
  newton =   1 [     251] linear =   110 [     32190] cuts =  0 [   0]
  --> max chng: dpmx=   3.9034E-03 dtmpmx=   6.8139E-05

== TH FLOW =====================================================================
 Step    243 Time=  1.15500E+01 Dt=  5.00000E-02 [y] snes_conv_reason:   11
  newton =   1 [     252] linear =   112 [     32302] cuts =  0 [   0]
  --> max chng: dpmx=   3.8404E-03 dtmpmx=   6.8042E-05

== TH FLOW =====================================================================
 Step    244 Time=  1.16000E+01 Dt=  5.00000E-02 [y] snes_conv_reason:   11
  newton =   1 [     253] linear =   115 [     32417] cuts =  0 [   0]
  --> max chng: dpmx=   3.7755E-03 dtmpmx=   6.7945E-05

== TH FLOW =====================================================================
 Step    245 Time=  1.16500E+01 Dt=  5.00000E-02 [y] snes_conv_reason:   11
  newton =   1 [     254] linear =   117 [     32534] cuts =  0 [   0]
  --> max chng: dpmx=   3.7084E-03 dtmpmx=   6.7848E-05

== TH FLOW =====================================================================
 Step    246 Time=  1.17000E+01 Dt=  5.00000E-02 [y] snes_conv_reason:   11
  newton =   1 [     255] linear =   115 [     32649] cuts =  0 [   0]
  --> max chng: dpmx=   3.6404E-03 dtmpmx=   6.7750E-05

== TH FLOW =====================================================================
 Step    247 Time=  1.17500E+01 Dt=  5.00000E-02 [y] snes_conv_reason:   11
  newton =   1 [     256] linear =   116 [     32765] cuts =  0 [   0]
  --> max chng: dpmx=   3.5710E-03 dtmpmx=   6.7652E-05

== TH FLOW =====================================================================
 Step    248 Time=  1.18000E+01 Dt=  5.00000E-02 [y] snes_conv_reason:   11
  newton =   1 [     257] linear =   121 [     32886] cuts =  0 [   0]
  --> max chng: dpmx=   3.4995E-03 dtmpmx=   6.7553E-05

== TH FLOW =====================================================================
 Step    249 Time=  1.18500E+01 Dt=  5.00000E-02 [y] snes_conv_reason:   11
  newton =   1 [     258] linear =   121 [     33007] cuts =  0 [   0]
  --> max chng: dpmx=   3.4278E-03 dtmpmx=   6.7453E-05

== TH FLOW =====================================================================
 Step    250 Time=  1.19000E+01 Dt=  5.00000E-02 [y] snes_conv_reason:   11
  newton =   1 [     259] linear =   122 [     33129] cuts =  0 [   0]
  --> max chng: dpmx=   3.3549E-03 dtmpmx=   6.7338E-05

== TH FLOW =====================================================================
 Step    251 Time=  1.19500E+01 Dt=  5.00000E-02 [y] snes_conv_reason:   11
  newton =   1 [     260] linear =   109 [     33238] cuts =  0 [   0]
  --> max chng: dpmx=   3.2804E-03 dtmpmx=   6.7190E-05

== TH FLOW =====================================================================
 Step    252 Time=  1.20000E+01 Dt=  5.00000E-02 [y] snes_conv_reason:   11
  newton =   1 [     261] linear =   121 [     33359] cuts =  0 [   0]
  --> max chng: dpmx=   3.2056E-03 dtmpmx=   6.7000E-05

== TH FLOW =====================================================================
 Step    253 Time=  1.20500E+01 Dt=  5.00000E-02 [y] snes_conv_reason:   11
  newton =   1 [     262] linear =   113 [     33472] cuts =  0 [   0]
  --> max chng: dpmx=   3.1295E-03 dtmpmx=   6.6768E-05

== TH FLOW =====================================================================
 Step    254 Time=  1.21000E+01 Dt=  5.00000E-02 [y] snes_conv_reason:   11
  newton =   1 [     263] linear =   112 [     33584] cuts =  0 [   0]
  --> max chng: dpmx=   3.0519E-03 dtmpmx=   6.6491E-05

== TH FLOW =====================================================================
 Step    255 Time=  1.21500E+01 Dt=  5.00000E-02 [y] snes_conv_reason:   11
  newton =   1 [     264] linear =   119 [     33703] cuts =  0 [   0]
  --> max chng: dpmx=   2.9741E-03 dtmpmx=   6.6167E-05

== TH FLOW =====================================================================
 Step    256 Time=  1.22000E+01 Dt=  5.00000E-02 [y] snes_conv_reason:   11
  newton =   1 [     265] linear =   122 [     33825] cuts =  0 [   0]
  --> max chng: dpmx=   2.8962E-03 dtmpmx=   6.5794E-05

== TH FLOW =====================================================================
 Step    257 Time=  1.22500E+01 Dt=  5.00000E-02 [y] snes_conv_reason:   11
  newton =   1 [     266] linear =   118 [     33943] cuts =  0 [   0]
  --> max chng: dpmx=   2.8168E-03 dtmpmx=   6.5370E-05

[...]
 Step    493 Time=  2.40500E+01 Dt=  5.00000E-02 [y] snes_conv_reason:   11
  newton =   1 [     502] linear =   127 [     64413] cuts =  0 [   0]
  --> max chng: dpmx=   1.8044E-08 dtmpmx=   5.2431E-10

== TH FLOW =====================================================================
 Step    494 Time=  2.41000E+01 Dt=  5.00000E-02 [y] snes_conv_reason:   11
  newton =   1 [     503] linear =   129 [     64542] cuts =  0 [   0]
  --> max chng: dpmx=   1.7462E-08 dtmpmx=   5.0358E-10

== TH FLOW =====================================================================
 Step    495 Time=  2.41500E+01 Dt=  5.00000E-02 [y] snes_conv_reason:   11
  newton =   1 [     504] linear =   130 [     64672] cuts =  0 [   0]
  --> max chng: dpmx=   1.6764E-08 dtmpmx=   4.8356E-10

== TH FLOW =====================================================================
 Step    496 Time=  2.42000E+01 Dt=  5.00000E-02 [y] snes_conv_reason:   11
  newton =   1 [     505] linear =   128 [     64800] cuts =  0 [   0]
  --> max chng: dpmx=   1.6182E-08 dtmpmx=   4.8303E-10

== TH FLOW =====================================================================
 Step    497 Time=  2.42500E+01 Dt=  5.00000E-02 [y] snes_conv_reason:   11
  newton =   1 [     506] linear =   128 [     64928] cuts =  0 [   0]
  --> max chng: dpmx=   1.5600E-08 dtmpmx=   4.6039E-10

== TH FLOW =====================================================================
 Step    498 Time=  2.43000E+01 Dt=  5.00000E-02 [y] snes_conv_reason:   11
  newton =   1 [     507] linear =   124 [     65052] cuts =  0 [   0]
  --> max chng: dpmx=   1.5018E-08 dtmpmx=   4.5850E-10

== TH FLOW =====================================================================
 Step    499 Time=  2.43500E+01 Dt=  5.00000E-02 [y] snes_conv_reason:   11
  newton =   1 [     508] linear =   127 [     65179] cuts =  0 [   0]
  --> max chng: dpmx=   1.4552E-08 dtmpmx=   4.4687E-10

== TH FLOW =====================================================================
 Step    500 Time=  2.44000E+01 Dt=  5.00000E-02 [y] snes_conv_reason:   11
  newton =   1 [     509] linear =   129 [     65308] cuts =  0 [   0]
  --> max chng: dpmx=   1.3970E-08 dtmpmx=   4.5957E-10

== TH FLOW =====================================================================
 Step    501 Time=  2.44500E+01 Dt=  5.00000E-02 [y] snes_conv_reason:   11
  newton =   1 [     510] linear =   127 [     65435] cuts =  0 [   0]
  --> max chng: dpmx=   1.3504E-08 dtmpmx=   4.2440E-10

== TH FLOW =====================================================================
 Step    502 Time=  2.45000E+01 Dt=  5.00000E-02 [y] snes_conv_reason:   11
  newton =   1 [     511] linear =   129 [     65564] cuts =  0 [   0]
  --> max chng: dpmx=   1.2922E-08 dtmpmx=   4.1049E-10

== TH FLOW =====================================================================
 Step    503 Time=  2.45500E+01 Dt=  5.00000E-02 [y] snes_conv_reason:   11
  newton =   1 [     512] linear =   126 [     65690] cuts =  0 [   0]
  --> max chng: dpmx=   1.2456E-08 dtmpmx=   4.1226E-10

== TH FLOW =====================================================================
 Step    504 Time=  2.46000E+01 Dt=  5.00000E-02 [y] snes_conv_reason:   11
  newton =   1 [     513] linear =   129 [     65819] cuts =  0 [   0]
  --> max chng: dpmx=   1.1991E-08 dtmpmx=   3.9852E-10

== TH FLOW =====================================================================
 Step    505 Time=  2.46500E+01 Dt=  5.00000E-02 [y] snes_conv_reason:   11
  newton =   1 [     514] linear =   127 [     65946] cuts =  0 [   0]
  --> max chng: dpmx=   1.1525E-08 dtmpmx=   3.7936E-10

== TH FLOW =====================================================================
 Step    506 Time=  2.47000E+01 Dt=  5.00000E-02 [y] snes_conv_reason:   11
  newton =   1 [     515] linear =   131 [     66077] cuts =  0 [   0]
  --> max chng: dpmx=   1.1059E-08 dtmpmx=   3.7310E-10

== TH FLOW =====================================================================
 Step    507 Time=  2.47500E+01 Dt=  5.00000E-02 [y] snes_conv_reason:   11
  newton =   1 [     516] linear =   134 [     66211] cuts =  0 [   0]
  --> max chng: dpmx=   1.0594E-08 dtmpmx=   3.6305E-10

== TH FLOW =====================================================================
 Step    508 Time=  2.48000E+01 Dt=  5.00000E-02 [y] snes_conv_reason:   11
  newton =   1 [     517] linear =   130 [     66341] cuts =  0 [   0]
  --> max chng: dpmx=   1.0128E-08 dtmpmx=   3.2871E-10

== TH FLOW =====================================================================
 Step    509 Time=  2.48500E+01 Dt=  5.00000E-02 [y] snes_conv_reason:   11
  newton =   1 [     518] linear =   130 [     66471] cuts =  0 [   0]
  --> max chng: dpmx=   9.6625E-09 dtmpmx=   3.3363E-10

== TH FLOW =====================================================================
 Step    510 Time=  2.49000E+01 Dt=  5.00000E-02 [y] snes_conv_reason:   11
  newton =   1 [     519] linear =   127 [     66598] cuts =  0 [   0]
  --> max chng: dpmx=   9.3132E-09 dtmpmx=   3.4741E-10

== TH FLOW =====================================================================
 Step    511 Time=  2.49500E+01 Dt=  5.00000E-02 [y] snes_conv_reason:   11
  newton =   1 [     520] linear =   129 [     66727] cuts =  0 [   0]
  --> max chng: dpmx=   8.9640E-09 dtmpmx=   3.0518E-10

== TH FLOW =====================================================================
 Step    512 Time=  2.50000E+01 Dt=  5.00000E-02 [y] snes_conv_reason:   11
  newton =   1 [     521] linear =   130 [     66857] cuts =  0 [   0]
  --> max chng: dpmx=   8.4983E-09 dtmpmx=   3.1898E-10

== TH FLOW =====================================================================
 Step    513 Time=  2.50500E+01 Dt=  5.00000E-02 [y] snes_conv_reason:   11
  newton =   1 [     522] linear =   130 [     66987] cuts =  0 [   0]
  --> max chng: dpmx=   8.1491E-09 dtmpmx=   3.0254E-10

== TH FLOW =====================================================================
 Step    514 Time=  2.51000E+01 Dt=  5.00000E-02 [y] snes_conv_reason:   11
  newton =   1 [     523] linear =   124 [     67111] cuts =  0 [   0]
  --> max chng: dpmx=   7.7998E-09 dtmpmx=   2.9843E-10

== TH FLOW =====================================================================
 Step    515 Time=  2.51500E+01 Dt=  5.00000E-02 [y] snes_conv_reason:   11
  newton =   1 [     524] linear =   135 [     67246] cuts =  0 [   0]
  --> max chng: dpmx=   7.4506E-09 dtmpmx=   2.7106E-10

== TH FLOW =====================================================================
 Step    516 Time=  2.52000E+01 Dt=  5.00000E-02 [y] snes_conv_reason:   11
  newton =   1 [     525] linear =   131 [     67377] cuts =  0 [   0]
  --> max chng: dpmx=   7.1013E-09 dtmpmx=   2.6785E-10

== TH FLOW =====================================================================
 Step    517 Time=  2.52500E+01 Dt=  5.00000E-02 [y] snes_conv_reason:   11
  newton =   1 [     526] linear =   133 [     67510] cuts =  0 [   0]
  --> max chng: dpmx=   6.8685E-09 dtmpmx=   2.6647E-10

== TH FLOW =====================================================================
 Step    518 Time=  2.53000E+01 Dt=  5.00000E-02 [y] snes_conv_reason:   11
  newton =   1 [     527] linear =   130 [     67640] cuts =  0 [   0]
  --> max chng: dpmx=   6.5193E-09 dtmpmx=   2.4937E-10

== TH FLOW =====================================================================
 Step    519 Time=  2.53500E+01 Dt=  5.00000E-02 [y] snes_conv_reason:   11
  newton =   1 [     528] linear =   138 [     67778] cuts =  0 [   0]
  --> max chng: dpmx=   6.1700E-09 dtmpmx=   2.3108E-10

== TH FLOW =====================================================================
 Step    520 Time=  2.54000E+01 Dt=  5.00000E-02 [y] snes_conv_reason:   11
  newton =   1 [     529] linear =   135 [     67913] cuts =  0 [   0]
  --> max chng: dpmx=   5.8208E-09 dtmpmx=   2.4369E-10

== TH FLOW =====================================================================
 Step    521 Time=  2.54500E+01 Dt=  5.00000E-02 [y] snes_conv_reason:   11
  newton =   1 [     530] linear =   133 [     68046] cuts =  0 [   0]
  --> max chng: dpmx=   5.5879E-09 dtmpmx=   2.1005E-10

== TH FLOW =====================================================================
 Step    522 Time=  2.55000E+01 Dt=  5.00000E-02 [y] snes_conv_reason:   11
  newton =   1 [     531] linear =   132 [     68178] cuts =  0 [   0]
  --> max chng: dpmx=   5.2387E-09 dtmpmx=   2.2662E-10

== TH FLOW =====================================================================
 Step    523 Time=  2.55500E+01 Dt=  5.00000E-02 [y] snes_conv_reason:   11
  newton =   1 [     532] linear =   132 [     68310] cuts =  0 [   0]
  --> max chng: dpmx=   5.0059E-09 dtmpmx=   2.2426E-10

== TH FLOW =====================================================================
 Step    524 Time=  2.56000E+01 Dt=  5.00000E-02 [y] snes_conv_reason:   11
  newton =   1 [     533] linear =   136 [     68446] cuts =  0 [   0]
  --> max chng: dpmx=   4.7730E-09 dtmpmx=   1.9847E-10

== TH FLOW =====================================================================
 Step    525 Time=  2.56500E+01 Dt=  5.00000E-02 [y] snes_conv_reason:   11
  newton =   1 [     534] linear =   139 [     68585] cuts =  0 [   0]
  --> max chng: dpmx=   4.5402E-09 dtmpmx=   1.7738E-10

== TH FLOW =====================================================================
 Step    526 Time=  2.57000E+01 Dt=  5.00000E-02 [y] snes_conv_reason:   11
  newton =   1 [     535] linear =   137 [     68722] cuts =  0 [   0]
  --> max chng: dpmx=   4.3074E-09 dtmpmx=   1.9966E-10

== TH FLOW =====================================================================
 Step    527 Time=  2.57500E+01 Dt=  5.00000E-02 [y] snes_conv_reason:   11
  newton =   1 [     536] linear =   133 [     68855] cuts =  0 [   0]
  --> max chng: dpmx=   4.0745E-09 dtmpmx=   1.8715E-10

== TH FLOW =====================================================================
 Step    528 Time=  2.58000E+01 Dt=  5.00000E-02 [y] snes_conv_reason:   11
  newton =   1 [     537] linear =   134 [     68989] cuts =  0 [   0]
  --> max chng: dpmx=   3.8417E-09 dtmpmx=   1.8116E-10

== TH FLOW =====================================================================
 Step    529 Time=  2.58500E+01 Dt=  5.00000E-02 [y] snes_conv_reason:   11
  newton =   1 [     538] linear =   133 [     69122] cuts =  0 [   0]
  --> max chng: dpmx=   3.6089E-09 dtmpmx=   1.7135E-10

== TH FLOW =====================================================================
 Step    530 Time=  2.59000E+01 Dt=  5.00000E-02 [y] snes_conv_reason:   11
  newton =   1 [     539] linear =   136 [     69258] cuts =  0 [   0]
  --> max chng: dpmx=   3.4925E-09 dtmpmx=   1.6578E-10

== TH FLOW =====================================================================
 Step    531 Time=  2.59500E+01 Dt=  5.00000E-02 [y] snes_conv_reason:   11
  newton =   1 [     540] linear =   132 [     69390] cuts =  0 [   0]
  --> max chng: dpmx=   3.2596E-09 dtmpmx=   1.5272E-10

== TH FLOW =====================================================================
 Step    532 Time=  2.60000E+01 Dt=  5.00000E-02 [y] snes_conv_reason:   11
  newton =   1 [     541] linear =   128 [     69518] cuts =  0 [   0]
  --> max chng: dpmx=   3.1432E-09 dtmpmx=   1.4744E-10

== TH FLOW =====================================================================
 Step    533 Time=  2.60500E+01 Dt=  5.00000E-02 [y] snes_conv_reason:   11
  newton =   1 [     542] linear =   138 [     69656] cuts =  0 [   0]
  --> max chng: dpmx=   3.0268E-09 dtmpmx=   1.6105E-10

== TH FLOW =====================================================================
 Step    534 Time=  2.61000E+01 Dt=  5.00000E-02 [y] snes_conv_reason:   11
  newton =   1 [     543] linear =   128 [     69784] cuts =  0 [   0]
  --> max chng: dpmx=   2.7940E-09 dtmpmx=   1.3066E-10

== TH FLOW =====================================================================
 Step    535 Time=  2.61500E+01 Dt=  5.00000E-02 [y] snes_conv_reason:   11
  newton =   1 [     544] linear =   140 [     69924] cuts =  0 [   0]
  --> max chng: dpmx=   2.5611E-09 dtmpmx=   1.2075E-10

== TH FLOW =====================================================================
 Step    536 Time=  2.62000E+01 Dt=  5.00000E-02 [y] snes_conv_reason:   11
  newton =   1 [     545] linear =   145 [     70069] cuts =  0 [   0]
  --> max chng: dpmx=   2.4447E-09 dtmpmx=   1.3235E-10

== TH FLOW =====================================================================
 Step    537 Time=  2.62500E+01 Dt=  5.00000E-02 [y] snes_conv_reason:   11
  newton =   1 [     546] linear =   134 [     70203] cuts =  0 [   0]
  --> max chng: dpmx=   2.3283E-09 dtmpmx=   1.2680E-10

== TH FLOW =====================================================================
 Step    538 Time=  2.63000E+01 Dt=  5.00000E-02 [y] snes_conv_reason:   11
  newton =   1 [     547] linear =   134 [     70337] cuts =  0 [   0]
  --> max chng: dpmx=   2.0955E-09 dtmpmx=   1.2756E-10

== TH FLOW =====================================================================
 Step    539 Time=  2.63500E+01 Dt=  5.00000E-02 [y] snes_conv_reason:   11
  newton =   1 [     548] linear =   134 [     70471] cuts =  0 [   0]
  --> max chng: dpmx=   1.9791E-09 dtmpmx=   1.0369E-10

== TH FLOW =====================================================================
 Step    540 Time=  2.64000E+01 Dt=  5.00000E-02 [y] snes_conv_reason:   11
  newton =   1 [     549] linear =   137 [     70608] cuts =  0 [   0]
  --> max chng: dpmx=   1.9791E-09 dtmpmx=   1.0352E-10

== TH FLOW =====================================================================
 Step    541 Time=  2.64500E+01 Dt=  5.00000E-02 [y] snes_conv_reason:   11
  newton =   1 [     550] linear =   131 [     70739] cuts =  0 [   0]
  --> max chng: dpmx=   1.8626E-09 dtmpmx=   1.3643E-10

== TH FLOW =====================================================================
 Step    542 Time=  2.65000E+01 Dt=  5.00000E-02 [y] snes_conv_reason:   11
  newton =   1 [     551] linear =   138 [     70877] cuts =  0 [   0]
  --> max chng: dpmx=   1.7462E-09 dtmpmx=   1.1541E-10

== TH FLOW =====================================================================
 Step    543 Time=  2.65500E+01 Dt=  5.00000E-02 [y] snes_conv_reason:   11
  newton =   1 [     552] linear =   129 [     71006] cuts =  0 [   0]
  --> max chng: dpmx=   1.6298E-09 dtmpmx=   1.0871E-10

== TH FLOW =====================================================================
 Step    544 Time=  2.66000E+01 Dt=  5.00000E-02 [y] snes_conv_reason:   11
  newton =   1 [     553] linear =   141 [     71147] cuts =  0 [   0]
  --> max chng: dpmx=   1.5134E-09 dtmpmx=   8.2329E-11

== TH FLOW =====================================================================
 Step    545 Time=  2.66500E+01 Dt=  5.00000E-02 [y] snes_conv_reason:   11
  newton =   1 [     554] linear =   139 [     71286] cuts =  0 [   0]
  --> max chng: dpmx=   1.3970E-09 dtmpmx=   9.1086E-11

== TH FLOW =====================================================================
 Step    546 Time=  2.67000E+01 Dt=  5.00000E-02 [y] snes_conv_reason:   11
  newton =   1 [     555] linear =   126 [     71412] cuts =  0 [   0]
  --> max chng: dpmx=   1.2806E-09 dtmpmx=   7.6472E-11

== TH FLOW =====================================================================
 Step    547 Time=  2.67500E+01 Dt=  5.00000E-02 [y] snes_conv_reason:   11
  newton =   1 [     556] linear =   138 [     71550] cuts =  0 [   0]
  --> max chng: dpmx=   1.2806E-09 dtmpmx=   1.0599E-10

== TH FLOW =====================================================================
 Step    548 Time=  2.68000E+01 Dt=  5.00000E-02 [y] snes_conv_reason:   11
  newton =   1 [     557] linear =   137 [     71687] cuts =  0 [   0]
  --> max chng: dpmx=   1.1642E-09 dtmpmx=   8.5937E-11

== TH FLOW =====================================================================
 Step    549 Time=  2.68500E+01 Dt=  5.00000E-02 [y] snes_conv_reason:   11
  newton =   1 [     558] linear =   121 [     71808] cuts =  0 [   0]
  --> max chng: dpmx=   1.0477E-09 dtmpmx=   7.9993E-11

== TH FLOW =====================================================================
 Step    550 Time=  2.69000E+01 Dt=  5.00000E-02 [y] snes_conv_reason:   11
  newton =   1 [     559] linear =   129 [     71937] cuts =  0 [   0]
  --> max chng: dpmx=   1.0477E-09 dtmpmx=   8.8134E-11

== TH FLOW =====================================================================
 Step    551 Time=  2.69500E+01 Dt=  5.00000E-02 [y] snes_conv_reason:   11
  newton =   1 [     560] linear =   139 [     72076] cuts =  0 [   0]
  --> max chng: dpmx=   9.3132E-10 dtmpmx=   6.7152E-11

== TH FLOW =====================================================================
 Step    552 Time=  2.70000E+01 Dt=  5.00000E-02 [y] snes_conv_reason:   11
  newton =   1 [     561] linear =   133 [     72209] cuts =  0 [   0]
  --> max chng: dpmx=   9.3132E-10 dtmpmx=   7.4596E-11

== TH FLOW =====================================================================
 Step    553 Time=  2.70500E+01 Dt=  5.00000E-02 [y] snes_conv_reason:   11
  newton =   1 [     562] linear =   138 [     72347] cuts =  0 [   0]
  --> max chng: dpmx=   8.1491E-10 dtmpmx=   6.9411E-11

== TH FLOW =====================================================================
 Step    554 Time=  2.71000E+01 Dt=  5.00000E-02 [y] snes_conv_reason:   11
  newton =   1 [     563] linear =   137 [     72484] cuts =  0 [   0]
  --> max chng: dpmx=   8.1491E-10 dtmpmx=   6.4825E-11

== TH FLOW =====================================================================
 Step    555 Time=  2.71500E+01 Dt=  5.00000E-02 [y] snes_conv_reason:   11
  newton =   1 [     564] linear =   128 [     72612] cuts =  0 [   0]
  --> max chng: dpmx=   6.9849E-10 dtmpmx=   6.9649E-11

== TH FLOW =====================================================================
 Step    556 Time=  2.72000E+01 Dt=  5.00000E-02 [y] snes_conv_reason:   11
  newton =   1 [     565] linear =   123 [     72735] cuts =  0 [   0]
  --> max chng: dpmx=   6.9849E-10 dtmpmx=   7.8705E-11

== TH FLOW =====================================================================
 Step    557 Time=  2.72500E+01 Dt=  5.00000E-02 [y] snes_conv_reason:   11
  newton =   1 [     566] linear =   134 [     72869] cuts =  0 [   0]
  --> max chng: dpmx=   5.8208E-10 dtmpmx=   7.4111E-11

== TH FLOW =====================================================================
 Step    558 Time=  2.73000E+01 Dt=  5.00000E-02 [y] snes_conv_reason:   11
  newton =   1 [     567] linear =   125 [     72994] cuts =  0 [   0]
  --> max chng: dpmx=   5.8208E-10 dtmpmx=   8.0862E-11

== TH FLOW =====================================================================
 Step    559 Time=  2.73500E+01 Dt=  5.00000E-02 [y] snes_conv_reason:   11
  newton =   1 [     568] linear =   132 [     73126] cuts =  0 [   0]
  --> max chng: dpmx=   5.8208E-10 dtmpmx=   7.1781E-11

== TH FLOW =====================================================================
 Step    560 Time=  2.74000E+01 Dt=  5.00000E-02 [y] snes_conv_reason:   11
  newton =   1 [     569] linear =   125 [     73251] cuts =  0 [   0]
  --> max chng: dpmx=   5.8208E-10 dtmpmx=   6.9912E-11

== TH FLOW =====================================================================
 Step    561 Time=  2.74500E+01 Dt=  5.00000E-02 [y] snes_conv_reason:   11
  newton =   1 [     570] linear =   118 [     73369] cuts =  0 [   0]
  --> max chng: dpmx=   4.6566E-10 dtmpmx=   7.5419E-11

== TH FLOW =====================================================================
 Step    562 Time=  2.75000E+01 Dt=  5.00000E-02 [y] snes_conv_reason:   11
  newton =   1 [     571] linear =   124 [     73493] cuts =  0 [   0]
  --> max chng: dpmx=   4.6566E-10 dtmpmx=   7.4738E-11

 Wall Clock Time:  1.5410E+02 [sec]   2.5683E+00 [min]   4.2805E-02 [hr]
