
===================
  PFLOTRAN v3.0.1
===================

 Extent of Gridded Domain
  X: 2.5000000000000000 - 97.500000000000000
  Y: 2.5000000000000000 - 1277.5000000000000
  Z: 2.5000000000000000 - 2.5000000000000000


=+=+=+=+=+=+=+=+=+=+=+=+=+=+=+=+=+=+=+=+=+=+=+=+=+=+=+=+=+=+=+=+=+=+=+=+=+=+=+=+

  Initial Condition

--------------------------------------------------------------------------------
          Flow Condition:   initial
                  Region:   all
--------------------------------------------------------------------------------

  Flow Condition: initial
    Synchronize time with update: no
    Time units: yr
    Length units: m
      Datum:
        Dataset: Unnamed Ascii Dataset
          Type: dataset_ascii_type
          Transient: no
          Array Rank:  3

    Sub Condition: pressure
      Type: hydrostatic
      Gradient:
        Dataset: Unnamed Ascii Dataset
          Type: dataset_ascii_type
          Transient: no
          Array Rank:  3
      Data:
        Dataset: Unnamed Ascii Dataset
          Type: dataset_ascii_type
          Transient: no
          Array Rank:  1

    Sub Condition: temperature
      Type: dirichlet
      Gradient:
      Data:
        Dataset: Unnamed Ascii Dataset
          Type: dataset_ascii_type
          Transient: no
          Array Rank:  1

--------------------------------------------------------------------------------

=+=+=+=+=+=+=+=+=+=+=+=+=+=+=+=+=+=+=+=+=+=+=+=+=+=+=+=+=+=+=+=+=+=+=+=+=+=+=+=+

  Boundary Condition

--------------------------------------------------------------------------------
          Flow Condition:   initial
                  Region:   north
--------------------------------------------------------------------------------

  Flow Condition: initial
    Synchronize time with update: no
    Time units: yr
    Length units: m
      Datum:
        Dataset: Unnamed Ascii Dataset
          Type: dataset_ascii_type
          Transient: no
          Array Rank:  3

    Sub Condition: pressure
      Type: hydrostatic
      Gradient:
        Dataset: Unnamed Ascii Dataset
          Type: dataset_ascii_type
          Transient: no
          Array Rank:  3
      Data:
        Dataset: Unnamed Ascii Dataset
          Type: dataset_ascii_type
          Transient: no
          Array Rank:  1

    Sub Condition: temperature
      Type: dirichlet
      Gradient:
      Data:
        Dataset: Unnamed Ascii Dataset
          Type: dataset_ascii_type
          Transient: no
          Array Rank:  1

--------------------------------------------------------------------------------

=+=+=+=+=+=+=+=+=+=+=+=+=+=+=+=+=+=+=+=+=+=+=+=+=+=+=+=+=+=+=+=+=+=+=+=+=+=+=+=+

  Boundary Condition

--------------------------------------------------------------------------------
          Flow Condition:   initial
                  Region:   south
--------------------------------------------------------------------------------

  Flow Condition: initial
    Synchronize time with update: no
    Time units: yr
    Length units: m
      Datum:
        Dataset: Unnamed Ascii Dataset
          Type: dataset_ascii_type
          Transient: no
          Array Rank:  3

    Sub Condition: pressure
      Type: hydrostatic
      Gradient:
        Dataset: Unnamed Ascii Dataset
          Type: dataset_ascii_type
          Transient: no
          Array Rank:  3
      Data:
        Dataset: Unnamed Ascii Dataset
          Type: dataset_ascii_type
          Transient: no
          Array Rank:  1

    Sub Condition: temperature
      Type: dirichlet
      Gradient:
      Data:
        Dataset: Unnamed Ascii Dataset
          Type: dataset_ascii_type
          Transient: no
          Array Rank:  1

--------------------------------------------------------------------------------

=+=+=+=+=+=+=+=+=+=+=+=+=+=+=+=+=+=+=+=+=+=+=+=+=+=+=+=+=+=+=+=+=+=+=+=+=+=+=+=+

  Source Sink

--------------------------------------------------------------------------------
          Flow Condition:   injection
                  Region:   heatpump_inject0
--------------------------------------------------------------------------------

  Flow Condition: injection
    Synchronize time with update: no
    Time units: yr
    Length units: m
      Datum:

    Sub Condition: rate
      Type: scaled volumetric rate
      Gradient:
      Data:
        Dataset: Unnamed Ascii Dataset
          Type: dataset_ascii_type
          Is transient?: yes
          Number of times:      3
          Is cyclic?: no
          Buffer:
            Rank:  2
            Dims:    1   3
            Buffer Slice Size:   0
          Array Rank:  1

    Sub Condition: temperature
      Type: dirichlet
      Gradient:
      Data:
        Dataset: Unnamed Ascii Dataset
          Type: dataset_ascii_type
          Transient: no
          Array Rank:  1

--------------------------------------------------------------------------------

 Requested processors =    32

FLOW Time Stepper
                 acceleration: on
       acceleration threshold: 5
       number of ramp entries: 5
                ramp entry #1: 2.0000
                ramp entry #2: 2.0000
                ramp entry #3: 2.0000
                ramp entry #4: 2.0000
                ramp entry #5: 2.0000
                ramp entry #6: 1.8000
                ramp entry #7: 1.6000
                ramp entry #8: 1.4000
                ramp entry #9: 1.2000
               ramp entry #10: 1.0000
               ramp entry #11: 1.0000
               ramp entry #12: 1.0000
               ramp entry #13: 1.0000
      maximum number of steps: 999999
constant time steps threshold: 5
       maximum number of cuts: 16
             reduction factor: 5.000000E-01
        maximum growth factor: 2.000000E+00

FLOW Newton Solver
                         atol: 1.000000E-50
                         rtol: 1.000000E-03
                         stol: 1.000000E-08
                         dtol: 1.000000E+04
                      maxnorm: 1.000000E+20
                    inftolres: -9.990000E+02
                    inftolupd: 1.000000E+00
                 inftolrelupd: -9.990000E+02
                 inftolsclres: -9.990000E+02
                     max iter: 50
                     min iter: 1
                         maxf: 10000
                  matrix type: baij
         precond. matrix type: baij
               inexact newton: off
            print convergence: on
   print detailed convergence: off
          check infinity norm: on

FLOW Linear Solver
                       solver: bcgs
               preconditioner: bjacobi
                         atol: 1.000000E-50
                         rtol: 1.000000E-05
                         dtol: 1.000000E+04
            maximum iteration: 10000

== TH FLOW =====================================================================
 Step      1 Time=  1.00000E-05 Dt=  1.00000E-05 [y] snes_conv_reason:   11
  newton =   1 [       1] linear =   113 [       113] cuts =  0 [   0]
  --> max chng: dpmx=   6.8682E-02 dtmpmx=   6.0033E-09

== TH FLOW =====================================================================
 Step      2 Time=  3.00000E-05 Dt=  2.00000E-05 [y] snes_conv_reason:   11
  newton =   1 [       2] linear =   125 [       238] cuts =  0 [   0]
  --> max chng: dpmx=   2.4982E-02 dtmpmx=   1.1866E-08

== TH FLOW =====================================================================
 Step      3 Time=  7.00000E-05 Dt=  4.00000E-05 [y] snes_conv_reason:   11
  newton =   1 [       3] linear =   108 [       346] cuts =  0 [   0]
  --> max chng: dpmx=   4.8264E-03 dtmpmx=   2.3675E-08

== TH FLOW =====================================================================
 Step      4 Time=  1.50000E-04 Dt=  8.00000E-05 [y] snes_conv_reason:   11
  newton =   1 [       4] linear =   113 [       459] cuts =  0 [   0]
  --> max chng: dpmx=   4.8735E-04 dtmpmx=   4.7340E-08

== TH FLOW =====================================================================
 Step      5 Time=  3.10000E-04 Dt=  1.60000E-04 [y] snes_conv_reason:   11
  newton =   1 [       5] linear =   139 [       598] cuts =  0 [   0]
  --> max chng: dpmx=   2.5063E-05 dtmpmx=   9.4680E-08

== TH FLOW =====================================================================
 Step      6 Time=  6.30000E-04 Dt=  3.20000E-04 [y] snes_conv_reason:   11
  newton =   1 [       6] linear =   130 [       728] cuts =  0 [   0]
  --> max chng: dpmx=   6.7393E-07 dtmpmx=   1.8936E-07

== TH FLOW =====================================================================
 Step      7 Time=  1.27000E-03 Dt=  6.40000E-04 [y] snes_conv_reason:   11
  newton =   1 [       7] linear =   118 [       846] cuts =  0 [   0]
  --> max chng: dpmx=   1.3926E-06 dtmpmx=   3.7872E-07

== TH FLOW =====================================================================
 Step      8 Time=  2.55000E-03 Dt=  1.28000E-03 [y] snes_conv_reason:   11
  newton =   1 [       8] linear =   126 [       972] cuts =  0 [   0]
  --> max chng: dpmx=   2.8505E-06 dtmpmx=   7.5744E-07

== TH FLOW =====================================================================
 Step      9 Time=  5.11000E-03 Dt=  2.56000E-03 [y] snes_conv_reason:   11
  newton =   1 [       9] linear =   122 [      1094] cuts =  0 [   0]
  --> max chng: dpmx=   5.9583E-06 dtmpmx=   1.5149E-06

== TH FLOW =====================================================================
 Step     10 Time=  1.02300E-02 Dt=  5.12000E-03 [y] snes_conv_reason:   11
  newton =   1 [      10] linear =   124 [      1218] cuts =  0 [   0]
  --> max chng: dpmx=   1.2975E-05 dtmpmx=   3.0298E-06

== TH FLOW =====================================================================
 Step     11 Time=  2.04700E-02 Dt=  1.02400E-02 [y] snes_conv_reason:   11
  newton =   1 [      11] linear =   127 [      1345] cuts =  0 [   0]
  --> max chng: dpmx=   3.0139E-05 dtmpmx=   6.0595E-06

== TH FLOW =====================================================================
 Step     12 Time=  4.09500E-02 Dt=  2.04800E-02 [y] snes_conv_reason:   11
  newton =   1 [      12] linear =   126 [      1471] cuts =  0 [   0]
  --> max chng: dpmx=   7.6960E-05 dtmpmx=   1.2119E-05

== TH FLOW =====================================================================
 Step     13 Time=  8.19100E-02 Dt=  4.09600E-02 [y] snes_conv_reason:   11
  newton =   1 [      13] linear =   124 [      1595] cuts =  0 [   0]
  --> max chng: dpmx=   2.1949E-04 dtmpmx=   2.4238E-05

== TH FLOW =====================================================================
 Step     14 Time=  1.00000E-01 Dt=  1.80900E-02 [y] snes_conv_reason:   11
  newton =   1 [      14] linear =   133 [      1728] cuts =  0 [   0]
  --> max chng: dpmx=   1.0978E-04 dtmpmx=   1.0705E-05

== TH FLOW =====================================================================
 Step     15 Time=  1.50000E-01 Dt=  5.00000E-02 [y] snes_conv_reason:   11
  newton =   1 [      15] linear =   134 [      1862] cuts =  0 [   0]
  --> max chng: dpmx=   3.9965E-04 dtmpmx=   2.9588E-05

== TH FLOW =====================================================================
 Step     16 Time=  2.00000E-01 Dt=  5.00000E-02 [y] snes_conv_reason:   11
  newton =   1 [      16] linear =   133 [      1995] cuts =  0 [   0]
  --> max chng: dpmx=   4.9489E-04 dtmpmx=   2.9588E-05

== TH FLOW =====================================================================
 Step     17 Time=  2.50000E-01 Dt=  5.00000E-02 [y] snes_conv_reason:   11
  newton =   3 [      19] linear =   375 [      2370] cuts =  0 [   0]
  --> max chng: dpmx=   4.8612E+02 dtmpmx=   3.1749E+00

== TH FLOW =====================================================================
 Step     18 Time=  3.00000E-01 Dt=  5.00000E-02 [y] snes_conv_reason:   11
  newton =   2 [      21] linear =   266 [      2636] cuts =  0 [   0]
  --> max chng: dpmx=   3.8688E+00 dtmpmx=   1.2536E+00

== TH FLOW =====================================================================
 Step     19 Time=  3.50000E-01 Dt=  5.00000E-02 [y] snes_conv_reason:   11
  newton =   2 [      23] linear =   269 [      2905] cuts =  0 [   0]
  --> max chng: dpmx=   2.6529E+00 dtmpmx=   8.6894E-01

== TH FLOW =====================================================================
 Step     20 Time=  4.00000E-01 Dt=  5.00000E-02 [y] snes_conv_reason:   11
  newton =   2 [      25] linear =   265 [      3170] cuts =  0 [   0]
  --> max chng: dpmx=   2.4689E+00 dtmpmx=   7.0959E-01

== TH FLOW =====================================================================
 Step     21 Time=  4.50000E-01 Dt=  5.00000E-02 [y] snes_conv_reason:   11
  newton =   2 [      27] linear =   275 [      3445] cuts =  0 [   0]
  --> max chng: dpmx=   2.3400E+00 dtmpmx=   6.0951E-01

== TH FLOW =====================================================================
 Step     22 Time=  5.00000E-01 Dt=  5.00000E-02 [y] snes_conv_reason:   11
  newton =   2 [      29] linear =   274 [      3719] cuts =  0 [   0]
  --> max chng: dpmx=   2.2481E+00 dtmpmx=   5.3989E-01

== TH FLOW =====================================================================
 Step     23 Time=  5.50000E-01 Dt=  5.00000E-02 [y] snes_conv_reason:    3
  newton =   1 [      30] linear =   137 [      3856] cuts =  0 [   0]
  --> max chng: dpmx=   2.1787E+00 dtmpmx=   4.8839E-01

== TH FLOW =====================================================================
 Step     24 Time=  6.00000E-01 Dt=  5.00000E-02 [y] snes_conv_reason:    3
  newton =   1 [      31] linear =   131 [      3987] cuts =  0 [   0]
  --> max chng: dpmx=   2.1180E+00 dtmpmx=   4.4804E-01

== TH FLOW =====================================================================
 Step     25 Time=  6.50000E-01 Dt=  5.00000E-02 [y] snes_conv_reason:    3
  newton =   1 [      32] linear =   136 [      4123] cuts =  0 [   0]
  --> max chng: dpmx=   2.0715E+00 dtmpmx=   4.1542E-01

== TH FLOW =====================================================================
 Step     26 Time=  7.00000E-01 Dt=  5.00000E-02 [y] snes_conv_reason:    3
  newton =   1 [      33] linear =   139 [      4262] cuts =  0 [   0]
  --> max chng: dpmx=   2.0289E+00 dtmpmx=   3.8832E-01

== TH FLOW =====================================================================
 Step     27 Time=  7.50000E-01 Dt=  5.00000E-02 [y] snes_conv_reason:    3
  newton =   1 [      34] linear =   137 [      4399] cuts =  0 [   0]
  --> max chng: dpmx=   1.9935E+00 dtmpmx=   3.6535E-01

== TH FLOW =====================================================================
 Step     28 Time=  8.00000E-01 Dt=  5.00000E-02 [y] snes_conv_reason:    3
  newton =   1 [      35] linear =   139 [      4538] cuts =  0 [   0]
  --> max chng: dpmx=   1.9608E+00 dtmpmx=   3.4554E-01

== TH FLOW =====================================================================
 Step     29 Time=  8.50000E-01 Dt=  5.00000E-02 [y] snes_conv_reason:    3
  newton =   1 [      36] linear =   138 [      4676] cuts =  0 [   0]
  --> max chng: dpmx=   1.9315E+00 dtmpmx=   3.2823E-01

== TH FLOW =====================================================================
 Step     30 Time=  9.00000E-01 Dt=  5.00000E-02 [y] snes_conv_reason:    3
  newton =   1 [      37] linear =   132 [      4808] cuts =  0 [   0]
  --> max chng: dpmx=   1.9060E+00 dtmpmx=   3.1293E-01

== TH FLOW =====================================================================
 Step     31 Time=  9.50000E-01 Dt=  5.00000E-02 [y] snes_conv_reason:    3
  newton =   1 [      38] linear =   138 [      4946] cuts =  0 [   0]
  --> max chng: dpmx=   1.8801E+00 dtmpmx=   2.9928E-01

== TH FLOW =====================================================================
 Step     32 Time=  1.00000E+00 Dt=  5.00000E-02 [y] snes_conv_reason:    3
  newton =   1 [      39] linear =   138 [      5084] cuts =  0 [   0]
  --> max chng: dpmx=   1.8581E+00 dtmpmx=   2.8700E-01

== TH FLOW =====================================================================
 Step     33 Time=  1.05000E+00 Dt=  5.00000E-02 [y] snes_conv_reason:    3
  newton =   1 [      40] linear =   135 [      5219] cuts =  0 [   0]
  --> max chng: dpmx=   1.8369E+00 dtmpmx=   2.7588E-01

== TH FLOW =====================================================================
 Step     34 Time=  1.10000E+00 Dt=  5.00000E-02 [y] snes_conv_reason:    3
  newton =   1 [      41] linear =   133 [      5352] cuts =  0 [   0]
  --> max chng: dpmx=   1.8165E+00 dtmpmx=   2.6574E-01

== TH FLOW =====================================================================
 Step     35 Time=  1.15000E+00 Dt=  5.00000E-02 [y] snes_conv_reason:    3
  newton =   1 [      42] linear =   133 [      5485] cuts =  0 [   0]
  --> max chng: dpmx=   1.7974E+00 dtmpmx=   2.5644E-01

== TH FLOW =====================================================================
 Step     36 Time=  1.20000E+00 Dt=  5.00000E-02 [y] snes_conv_reason:    3
  newton =   1 [      43] linear =   133 [      5618] cuts =  0 [   0]
  --> max chng: dpmx=   1.7794E+00 dtmpmx=   2.4788E-01

== TH FLOW =====================================================================
 Step     37 Time=  1.25000E+00 Dt=  5.00000E-02 [y] snes_conv_reason:    3
  newton =   1 [      44] linear =   128 [      5746] cuts =  0 [   0]
  --> max chng: dpmx=   1.7613E+00 dtmpmx=   2.3997E-01

== TH FLOW =====================================================================
 Step     38 Time=  1.30000E+00 Dt=  5.00000E-02 [y] snes_conv_reason:    3
  newton =   1 [      45] linear =   135 [      5881] cuts =  0 [   0]
  --> max chng: dpmx=   1.7447E+00 dtmpmx=   2.3262E-01

== TH FLOW =====================================================================
 Step     39 Time=  1.35000E+00 Dt=  5.00000E-02 [y] snes_conv_reason:    3
  newton =   1 [      46] linear =   137 [      6018] cuts =  0 [   0]
  --> max chng: dpmx=   1.7285E+00 dtmpmx=   2.2577E-01

== TH FLOW =====================================================================
 Step     40 Time=  1.40000E+00 Dt=  5.00000E-02 [y] snes_conv_reason:    3
  newton =   1 [      47] linear =   135 [      6153] cuts =  0 [   0]
  --> max chng: dpmx=   1.7127E+00 dtmpmx=   2.1937E-01

== TH FLOW =====================================================================
 Step     41 Time=  1.45000E+00 Dt=  5.00000E-02 [y] snes_conv_reason:    3
  newton =   1 [      48] linear =   136 [      6289] cuts =  0 [   0]
  --> max chng: dpmx=   1.6971E+00 dtmpmx=   2.1338E-01

== TH FLOW =====================================================================
 Step     42 Time=  1.50000E+00 Dt=  5.00000E-02 [y] snes_conv_reason:    3
  newton =   1 [      49] linear =   135 [      6424] cuts =  0 [   0]
  --> max chng: dpmx=   1.6824E+00 dtmpmx=   2.0775E-01

== TH FLOW =====================================================================
 Step     43 Time=  1.55000E+00 Dt=  5.00000E-02 [y] snes_conv_reason:    3
  newton =   1 [      50] linear =   135 [      6559] cuts =  0 [   0]
  --> max chng: dpmx=   1.6671E+00 dtmpmx=   2.0244E-01

== TH FLOW =====================================================================
 Step     44 Time=  1.60000E+00 Dt=  5.00000E-02 [y] snes_conv_reason:    3
  newton =   1 [      51] linear =   133 [      6692] cuts =  0 [   0]
  --> max chng: dpmx=   1.6535E+00 dtmpmx=   1.9743E-01

== TH FLOW =====================================================================
 Step     45 Time=  1.65000E+00 Dt=  5.00000E-02 [y] snes_conv_reason:    3
  newton =   1 [      52] linear =   133 [      6825] cuts =  0 [   0]
  --> max chng: dpmx=   1.6394E+00 dtmpmx=   1.9270E-01

== TH FLOW =====================================================================
 Step     46 Time=  1.70000E+00 Dt=  5.00000E-02 [y] snes_conv_reason:    3
  newton =   1 [      53] linear =   123 [      6948] cuts =  0 [   0]
  --> max chng: dpmx=   1.6249E+00 dtmpmx=   1.8821E-01

== TH FLOW =====================================================================
 Step     47 Time=  1.75000E+00 Dt=  5.00000E-02 [y] snes_conv_reason:    3
  newton =   1 [      54] linear =   136 [      7084] cuts =  0 [   0]
  --> max chng: dpmx=   1.6114E+00 dtmpmx=   1.8395E-01

== TH FLOW =====================================================================
 Step     48 Time=  1.80000E+00 Dt=  5.00000E-02 [y] snes_conv_reason:    3
  newton =   1 [      55] linear =   132 [      7216] cuts =  0 [   0]
  --> max chng: dpmx=   1.5984E+00 dtmpmx=   1.7990E-01

== TH FLOW =====================================================================
 Step     49 Time=  1.85000E+00 Dt=  5.00000E-02 [y] snes_conv_reason:    3
  newton =   1 [      56] linear =   134 [      7350] cuts =  0 [   0]
  --> max chng: dpmx=   1.5856E+00 dtmpmx=   1.7605E-01

== TH FLOW =====================================================================
 Step     50 Time=  1.90000E+00 Dt=  5.00000E-02 [y] snes_conv_reason:    3
  newton =   1 [      57] linear =   127 [      7477] cuts =  0 [   0]
  --> max chng: dpmx=   1.5718E+00 dtmpmx=   1.7237E-01

== TH FLOW =====================================================================
 Step     51 Time=  1.95000E+00 Dt=  5.00000E-02 [y] snes_conv_reason:    3
  newton =   1 [      58] linear =   133 [      7610] cuts =  0 [   0]
  --> max chng: dpmx=   1.5596E+00 dtmpmx=   1.6886E-01

== TH FLOW =====================================================================
 Step     52 Time=  2.00000E+00 Dt=  5.00000E-02 [y] snes_conv_reason:    3
  newton =   1 [      59] linear =   133 [      7743] cuts =  0 [   0]
  --> max chng: dpmx=   1.5472E+00 dtmpmx=   1.6550E-01

== TH FLOW =====================================================================
 Step     53 Time=  2.05000E+00 Dt=  5.00000E-02 [y] snes_conv_reason:    3
  newton =   1 [      60] linear =   132 [      7875] cuts =  0 [   0]
  --> max chng: dpmx=   1.5343E+00 dtmpmx=   1.6229E-01

== TH FLOW =====================================================================
 Step     54 Time=  2.10000E+00 Dt=  5.00000E-02 [y] snes_conv_reason:    3
  newton =   1 [      61] linear =   133 [      8008] cuts =  0 [   0]
  --> max chng: dpmx=   1.5216E+00 dtmpmx=   1.5921E-01

== TH FLOW =====================================================================
 Step     55 Time=  2.15000E+00 Dt=  5.00000E-02 [y] snes_conv_reason:    3
  newton =   1 [      62] linear =   135 [      8143] cuts =  0 [   0]
  --> max chng: dpmx=   1.5095E+00 dtmpmx=   1.5626E-01

== TH FLOW =====================================================================
 Step     56 Time=  2.20000E+00 Dt=  5.00000E-02 [y] snes_conv_reason:    3
  newton =   1 [      63] linear =   125 [      8268] cuts =  0 [   0]
  --> max chng: dpmx=   1.4979E+00 dtmpmx=   1.5342E-01

== TH FLOW =====================================================================
 Step     57 Time=  2.25000E+00 Dt=  5.00000E-02 [y] snes_conv_reason:    3
  newton =   1 [      64] linear =   125 [      8393] cuts =  0 [   0]
  --> max chng: dpmx=   1.4855E+00 dtmpmx=   1.5070E-01

== TH FLOW =====================================================================
 Step     58 Time=  2.30000E+00 Dt=  5.00000E-02 [y] snes_conv_reason:    3
  newton =   1 [      65] linear =   135 [      8528] cuts =  0 [   0]
  --> max chng: dpmx=   1.4740E+00 dtmpmx=   1.4808E-01

== TH FLOW =====================================================================
 Step     59 Time=  2.35000E+00 Dt=  5.00000E-02 [y] snes_conv_reason:    3
  newton =   1 [      66] linear =   130 [      8658] cuts =  0 [   0]
  --> max chng: dpmx=   1.4614E+00 dtmpmx=   1.4555E-01

== TH FLOW =====================================================================
 Step     60 Time=  2.40000E+00 Dt=  5.00000E-02 [y] snes_conv_reason:    3
  newton =   1 [      67] linear =   135 [      8793] cuts =  0 [   0]
  --> max chng: dpmx=   1.4505E+00 dtmpmx=   1.4312E-01

== TH FLOW =====================================================================
 Step     61 Time=  2.45000E+00 Dt=  5.00000E-02 [y] snes_conv_reason:    3
  newton =   1 [      68] linear =   133 [      8926] cuts =  0 [   0]
  --> max chng: dpmx=   1.4381E+00 dtmpmx=   1.4077E-01

== TH FLOW =====================================================================
 Step     62 Time=  2.50000E+00 Dt=  5.00000E-02 [y] snes_conv_reason:    3
  newton =   1 [      69] linear =   135 [      9061] cuts =  0 [   0]
  --> max chng: dpmx=   1.4270E+00 dtmpmx=   1.3851E-01

== TH FLOW =====================================================================
 Step     63 Time=  2.55000E+00 Dt=  5.00000E-02 [y] snes_conv_reason:    3
  newton =   1 [      70] linear =   130 [      9191] cuts =  0 [   0]
  --> max chng: dpmx=   1.4148E+00 dtmpmx=   1.3633E-01

== TH FLOW =====================================================================
 Step     64 Time=  2.60000E+00 Dt=  5.00000E-02 [y] snes_conv_reason:    3
  newton =   1 [      71] linear =   135 [      9326] cuts =  0 [   0]
  --> max chng: dpmx=   1.4041E+00 dtmpmx=   1.3421E-01

== TH FLOW =====================================================================
 Step     65 Time=  2.65000E+00 Dt=  5.00000E-02 [y] snes_conv_reason:    3
  newton =   1 [      72] linear =   134 [      9460] cuts =  0 [   0]
  --> max chng: dpmx=   1.3929E+00 dtmpmx=   1.3217E-01

== TH FLOW =====================================================================
 Step     66 Time=  2.70000E+00 Dt=  5.00000E-02 [y] snes_conv_reason:    3
  newton =   1 [      73] linear =   128 [      9588] cuts =  0 [   0]
  --> max chng: dpmx=   1.3814E+00 dtmpmx=   1.3020E-01

== TH FLOW =====================================================================
 Step     67 Time=  2.75000E+00 Dt=  5.00000E-02 [y] snes_conv_reason:    3
  newton =   1 [      74] linear =   129 [      9717] cuts =  0 [   0]
  --> max chng: dpmx=   1.3697E+00 dtmpmx=   1.2828E-01

== TH FLOW =====================================================================
 Step     68 Time=  2.80000E+00 Dt=  5.00000E-02 [y] snes_conv_reason:    3
  newton =   1 [      75] linear =   131 [      9848] cuts =  0 [   0]
  --> max chng: dpmx=   1.3593E+00 dtmpmx=   1.2643E-01

== TH FLOW =====================================================================
 Step     69 Time=  2.85000E+00 Dt=  5.00000E-02 [y] snes_conv_reason:    3
  newton =   1 [      76] linear =   131 [      9979] cuts =  0 [   0]
  --> max chng: dpmx=   1.3473E+00 dtmpmx=   1.2463E-01

== TH FLOW =====================================================================
 Step     70 Time=  2.90000E+00 Dt=  5.00000E-02 [y] snes_conv_reason:    3
  newton =   1 [      77] linear =   130 [     10109] cuts =  0 [   0]
  --> max chng: dpmx=   1.3367E+00 dtmpmx=   1.2289E-01

== TH FLOW =====================================================================
 Step     71 Time=  2.95000E+00 Dt=  5.00000E-02 [y] snes_conv_reason:    3
  newton =   1 [      78] linear =   131 [     10240] cuts =  0 [   0]
  --> max chng: dpmx=   1.3259E+00 dtmpmx=   1.2120E-01

== TH FLOW =====================================================================
 Step     72 Time=  3.00000E+00 Dt=  5.00000E-02 [y] snes_conv_reason:    3
  newton =   1 [      79] linear =   131 [     10371] cuts =  0 [   0]
  --> max chng: dpmx=   1.3140E+00 dtmpmx=   1.1956E-01

== TH FLOW =====================================================================
 Step     73 Time=  3.05000E+00 Dt=  5.00000E-02 [y] snes_conv_reason:    3
  newton =   1 [      80] linear =   129 [     10500] cuts =  0 [   0]
  --> max chng: dpmx=   1.3041E+00 dtmpmx=   1.1796E-01

== TH FLOW =====================================================================
 Step     74 Time=  3.10000E+00 Dt=  5.00000E-02 [y] snes_conv_reason:    3
  newton =   1 [      81] linear =   135 [     10635] cuts =  0 [   0]
  --> max chng: dpmx=   1.2924E+00 dtmpmx=   1.1641E-01

== TH FLOW =====================================================================
 Step     75 Time=  3.15000E+00 Dt=  5.00000E-02 [y] snes_conv_reason:    3
  newton =   1 [      82] linear =   132 [     10767] cuts =  0 [   0]
  --> max chng: dpmx=   1.2822E+00 dtmpmx=   1.1491E-01

== TH FLOW =====================================================================
 Step     76 Time=  3.20000E+00 Dt=  5.00000E-02 [y] snes_conv_reason:    3
  newton =   1 [      83] linear =   131 [     10898] cuts =  0 [   0]
  --> max chng: dpmx=   1.2711E+00 dtmpmx=   1.1344E-01

== TH FLOW =====================================================================
 Step     77 Time=  3.25000E+00 Dt=  5.00000E-02 [y] snes_conv_reason:    3
  newton =   1 [      84] linear =   130 [     11028] cuts =  0 [   0]
  --> max chng: dpmx=   1.2606E+00 dtmpmx=   1.1202E-01

== TH FLOW =====================================================================
 Step     78 Time=  3.30000E+00 Dt=  5.00000E-02 [y] snes_conv_reason:    3
  newton =   1 [      85] linear =   134 [     11162] cuts =  0 [   0]
  --> max chng: dpmx=   1.2493E+00 dtmpmx=   1.1063E-01

== TH FLOW =====================================================================
 Step     79 Time=  3.35000E+00 Dt=  5.00000E-02 [y] snes_conv_reason:    3
  newton =   1 [      86] linear =   127 [     11289] cuts =  0 [   0]
  --> max chng: dpmx=   1.2389E+00 dtmpmx=   1.0928E-01

== TH FLOW =====================================================================
 Step     80 Time=  3.40000E+00 Dt=  5.00000E-02 [y] snes_conv_reason:    3
  newton =   1 [      87] linear =   131 [     11420] cuts =  0 [   0]
  --> max chng: dpmx=   1.2280E+00 dtmpmx=   1.0796E-01

== TH FLOW =====================================================================
 Step     81 Time=  3.45000E+00 Dt=  5.00000E-02 [y] snes_conv_reason:    3
  newton =   1 [      88] linear =   131 [     11551] cuts =  0 [   0]
  --> max chng: dpmx=   1.2174E+00 dtmpmx=   1.0668E-01

== TH FLOW =====================================================================
 Step     82 Time=  3.50000E+00 Dt=  5.00000E-02 [y] snes_conv_reason:    3
  newton =   1 [      89] linear =   121 [     11672] cuts =  0 [   0]
  --> max chng: dpmx=   1.2068E+00 dtmpmx=   1.0543E-01

== TH FLOW =====================================================================
 Step     83 Time=  3.55000E+00 Dt=  5.00000E-02 [y] snes_conv_reason:    3
  newton =   1 [      90] linear =   134 [     11806] cuts =  0 [   0]
  --> max chng: dpmx=   1.1965E+00 dtmpmx=   1.0421E-01

== TH FLOW =====================================================================
 Step     84 Time=  3.60000E+00 Dt=  5.00000E-02 [y] snes_conv_reason:    3
  newton =   1 [      91] linear =   128 [     11934] cuts =  0 [   0]
  --> max chng: dpmx=   1.1857E+00 dtmpmx=   1.0303E-01

== TH FLOW =====================================================================
 Step     85 Time=  3.65000E+00 Dt=  5.00000E-02 [y] snes_conv_reason:    3
  newton =   1 [      92] linear =   129 [     12063] cuts =  0 [   0]
  --> max chng: dpmx=   1.1753E+00 dtmpmx=   1.0187E-01

== TH FLOW =====================================================================
 Step     86 Time=  3.70000E+00 Dt=  5.00000E-02 [y] snes_conv_reason:    3
  newton =   1 [      93] linear =   132 [     12195] cuts =  0 [   0]
  --> max chng: dpmx=   1.1646E+00 dtmpmx=   1.0074E-01

== TH FLOW =====================================================================
 Step     87 Time=  3.75000E+00 Dt=  5.00000E-02 [y] snes_conv_reason:    3
  newton =   1 [      94] linear =   129 [     12324] cuts =  0 [   0]
  --> max chng: dpmx=   1.1542E+00 dtmpmx=   9.9640E-02

== TH FLOW =====================================================================
 Step     88 Time=  3.80000E+00 Dt=  5.00000E-02 [y] snes_conv_reason:    3
  newton =   1 [      95] linear =   134 [     12458] cuts =  0 [   0]
  --> max chng: dpmx=   1.1440E+00 dtmpmx=   9.8562E-02

== TH FLOW =====================================================================
 Step     89 Time=  3.85000E+00 Dt=  5.00000E-02 [y] snes_conv_reason:    3
  newton =   1 [      96] linear =   134 [     12592] cuts =  0 [   0]
  --> max chng: dpmx=   1.1334E+00 dtmpmx=   9.7509E-02

== TH FLOW =====================================================================
 Step     90 Time=  3.90000E+00 Dt=  5.00000E-02 [y] snes_conv_reason:    3
  newton =   1 [      97] linear =   129 [     12721] cuts =  0 [   0]
  --> max chng: dpmx=   1.1227E+00 dtmpmx=   9.6480E-02

== TH FLOW =====================================================================
 Step     91 Time=  3.95000E+00 Dt=  5.00000E-02 [y] snes_conv_reason:    3
  newton =   1 [      98] linear =   134 [     12855] cuts =  0 [   0]
  --> max chng: dpmx=   1.1130E+00 dtmpmx=   9.5474E-02

== TH FLOW =====================================================================
 Step     92 Time=  4.00000E+00 Dt=  5.00000E-02 [y] snes_conv_reason:    3
  newton =   1 [      99] linear =   131 [     12986] cuts =  0 [   0]
  --> max chng: dpmx=   1.1023E+00 dtmpmx=   9.4490E-02

== TH FLOW =====================================================================
 Step     93 Time=  4.05000E+00 Dt=  5.00000E-02 [y] snes_conv_reason:    3
  newton =   1 [     100] linear =   133 [     13119] cuts =  0 [   0]
  --> max chng: dpmx=   1.0918E+00 dtmpmx=   9.3527E-02

== TH FLOW =====================================================================
 Step     94 Time=  4.10000E+00 Dt=  5.00000E-02 [y] snes_conv_reason:    3
  newton =   1 [     101] linear =   134 [     13253] cuts =  0 [   0]
  --> max chng: dpmx=   1.0816E+00 dtmpmx=   9.2584E-02

== TH FLOW =====================================================================
 Step     95 Time=  4.15000E+00 Dt=  5.00000E-02 [y] snes_conv_reason:    3
  newton =   1 [     102] linear =   131 [     13384] cuts =  0 [   0]
  --> max chng: dpmx=   1.0715E+00 dtmpmx=   9.1662E-02

== TH FLOW =====================================================================
 Step     96 Time=  4.20000E+00 Dt=  5.00000E-02 [y] snes_conv_reason:    3
  newton =   1 [     103] linear =   129 [     13513] cuts =  0 [   0]
  --> max chng: dpmx=   1.0610E+00 dtmpmx=   9.0759E-02

== TH FLOW =====================================================================
 Step     97 Time=  4.25000E+00 Dt=  5.00000E-02 [y] snes_conv_reason:    3
  newton =   1 [     104] linear =   120 [     13633] cuts =  0 [   0]
  --> max chng: dpmx=   1.0508E+00 dtmpmx=   8.9875E-02

== TH FLOW =====================================================================
 Step     98 Time=  4.30000E+00 Dt=  5.00000E-02 [y] snes_conv_reason:    3
  newton =   1 [     105] linear =   131 [     13764] cuts =  0 [   0]
  --> max chng: dpmx=   1.0401E+00 dtmpmx=   8.9009E-02

== TH FLOW =====================================================================
 Step     99 Time=  4.35000E+00 Dt=  5.00000E-02 [y] snes_conv_reason:    3
  newton =   1 [     106] linear =   130 [     13894] cuts =  0 [   0]
  --> max chng: dpmx=   1.0306E+00 dtmpmx=   8.8160E-02

== TH FLOW =====================================================================
 Step    100 Time=  4.40000E+00 Dt=  5.00000E-02 [y] snes_conv_reason:    3
  newton =   1 [     107] linear =   133 [     14027] cuts =  0 [   0]
  --> max chng: dpmx=   1.0198E+00 dtmpmx=   8.7329E-02

== TH FLOW =====================================================================
 Step    101 Time=  4.45000E+00 Dt=  5.00000E-02 [y] snes_conv_reason:    3
  newton =   1 [     108] linear =   130 [     14157] cuts =  0 [   0]
  --> max chng: dpmx=   1.0098E+00 dtmpmx=   8.6514E-02

== TH FLOW =====================================================================
 Step    102 Time=  4.50000E+00 Dt=  5.00000E-02 [y] snes_conv_reason:   11
  newton =   1 [     109] linear =   130 [     14287] cuts =  0 [   0]
  --> max chng: dpmx=   9.9977E-01 dtmpmx=   8.5715E-02

== TH FLOW =====================================================================
 Step    103 Time=  4.55000E+00 Dt=  5.00000E-02 [y] snes_conv_reason:   11
  newton =   1 [     110] linear =   130 [     14417] cuts =  0 [   0]
  --> max chng: dpmx=   9.8981E-01 dtmpmx=   8.4931E-02

== TH FLOW =====================================================================
 Step    104 Time=  4.60000E+00 Dt=  5.00000E-02 [y] snes_conv_reason:   11
  newton =   1 [     111] linear =   130 [     14547] cuts =  0 [   0]
  --> max chng: dpmx=   9.7955E-01 dtmpmx=   8.4162E-02

== TH FLOW =====================================================================
 Step    105 Time=  4.65000E+00 Dt=  5.00000E-02 [y] snes_conv_reason:   11
  newton =   1 [     112] linear =   130 [     14677] cuts =  0 [   0]
  --> max chng: dpmx=   9.6903E-01 dtmpmx=   8.3409E-02

== TH FLOW =====================================================================
 Step    106 Time=  4.70000E+00 Dt=  5.00000E-02 [y] snes_conv_reason:   11
  newton =   1 [     113] linear =   122 [     14799] cuts =  0 [   0]
  --> max chng: dpmx=   9.5901E-01 dtmpmx=   8.2669E-02

== TH FLOW =====================================================================
 Step    107 Time=  4.75000E+00 Dt=  5.00000E-02 [y] snes_conv_reason:   11
  newton =   1 [     114] linear =   134 [     14933] cuts =  0 [   0]
  --> max chng: dpmx=   9.4911E-01 dtmpmx=   8.1943E-02

== TH FLOW =====================================================================
 Step    108 Time=  4.80000E+00 Dt=  5.00000E-02 [y] snes_conv_reason:   11
  newton =   1 [     115] linear =   130 [     15063] cuts =  0 [   0]
  --> max chng: dpmx=   9.3890E-01 dtmpmx=   8.1230E-02

== TH FLOW =====================================================================
 Step    109 Time=  4.85000E+00 Dt=  5.00000E-02 [y] snes_conv_reason:   11
  newton =   1 [     116] linear =   128 [     15191] cuts =  0 [   0]
  --> max chng: dpmx=   9.2926E-01 dtmpmx=   8.0530E-02

== TH FLOW =====================================================================
 Step    110 Time=  4.90000E+00 Dt=  5.00000E-02 [y] snes_conv_reason:   11
  newton =   1 [     117] linear =   129 [     15320] cuts =  0 [   0]
  --> max chng: dpmx=   9.1825E-01 dtmpmx=   7.9843E-02

== TH FLOW =====================================================================
 Step    111 Time=  4.95000E+00 Dt=  5.00000E-02 [y] snes_conv_reason:   11
  newton =   1 [     118] linear =   132 [     15452] cuts =  0 [   0]
  --> max chng: dpmx=   9.0921E-01 dtmpmx=   7.9168E-02

== TH FLOW =====================================================================
 Step    112 Time=  5.00000E+00 Dt=  5.00000E-02 [y] snes_conv_reason:   11
  newton =   1 [     119] linear =   131 [     15583] cuts =  0 [   0]
  --> max chng: dpmx=   8.9886E-01 dtmpmx=   7.8506E-02

== TH FLOW =====================================================================
 Step    113 Time=  5.05000E+00 Dt=  5.00000E-02 [y] snes_conv_reason:   11
  newton =   1 [     120] linear =   131 [     15714] cuts =  0 [   0]
  --> max chng: dpmx=   8.8862E-01 dtmpmx=   7.7854E-02

== TH FLOW =====================================================================
 Step    114 Time=  5.10000E+00 Dt=  5.00000E-02 [y] snes_conv_reason:   11
  newton =   1 [     121] linear =   130 [     15844] cuts =  0 [   0]
  --> max chng: dpmx=   8.7874E-01 dtmpmx=   7.7214E-02

== TH FLOW =====================================================================
 Step    115 Time=  5.15000E+00 Dt=  5.00000E-02 [y] snes_conv_reason:   11
  newton =   1 [     122] linear =   129 [     15973] cuts =  0 [   0]
  --> max chng: dpmx=   8.6871E-01 dtmpmx=   7.6586E-02

== TH FLOW =====================================================================
 Step    116 Time=  5.20000E+00 Dt=  5.00000E-02 [y] snes_conv_reason:   11
  newton =   1 [     123] linear =   130 [     16103] cuts =  0 [   0]
  --> max chng: dpmx=   8.7463E-01 dtmpmx=   7.5967E-02

== TH FLOW =====================================================================
 Step    117 Time=  5.25000E+00 Dt=  5.00000E-02 [y] snes_conv_reason:   11
  newton =   1 [     124] linear =   126 [     16229] cuts =  0 [   0]
  --> max chng: dpmx=   8.8205E-01 dtmpmx=   7.5360E-02

== TH FLOW =====================================================================
 Step    118 Time=  5.30000E+00 Dt=  5.00000E-02 [y] snes_conv_reason:   11
  newton =   1 [     125] linear =   122 [     16351] cuts =  0 [   0]
  --> max chng: dpmx=   8.8934E-01 dtmpmx=   7.4762E-02

== TH FLOW =====================================================================
 Step    119 Time=  5.35000E+00 Dt=  5.00000E-02 [y] snes_conv_reason:   11
  newton =   1 [     126] linear =   127 [     16478] cuts =  0 [   0]
  --> max chng: dpmx=   8.9683E-01 dtmpmx=   7.4174E-02

== TH FLOW =====================================================================
 Step    120 Time=  5.40000E+00 Dt=  5.00000E-02 [y] snes_conv_reason:   11
  newton =   1 [     127] linear =   133 [     16611] cuts =  0 [   0]
  --> max chng: dpmx=   9.0421E-01 dtmpmx=   7.3596E-02

== TH FLOW =====================================================================
 Step    121 Time=  5.45000E+00 Dt=  5.00000E-02 [y] snes_conv_reason:   11
  newton =   1 [     128] linear =   133 [     16744] cuts =  0 [   0]
  --> max chng: dpmx=   9.1173E-01 dtmpmx=   7.3027E-02

== TH FLOW =====================================================================
 Step    122 Time=  5.50000E+00 Dt=  5.00000E-02 [y] snes_conv_reason:   11
  newton =   1 [     129] linear =   133 [     16877] cuts =  0 [   0]
  --> max chng: dpmx=   9.1924E-01 dtmpmx=   7.2468E-02

== TH FLOW =====================================================================
 Step    123 Time=  5.55000E+00 Dt=  5.00000E-02 [y] snes_conv_reason:   11
  newton =   1 [     130] linear =   134 [     17011] cuts =  0 [   0]
  --> max chng: dpmx=   9.2681E-01 dtmpmx=   7.1917E-02

== TH FLOW =====================================================================
 Step    124 Time=  5.60000E+00 Dt=  5.00000E-02 [y] snes_conv_reason:   11
  newton =   1 [     131] linear =   137 [     17148] cuts =  0 [   0]
  --> max chng: dpmx=   9.3437E-01 dtmpmx=   7.1376E-02

== TH FLOW =====================================================================
 Step    125 Time=  5.65000E+00 Dt=  5.00000E-02 [y] snes_conv_reason:   11
  newton =   1 [     132] linear =   135 [     17283] cuts =  0 [   0]
  --> max chng: dpmx=   9.4193E-01 dtmpmx=   7.0842E-02

== TH FLOW =====================================================================
 Step    126 Time=  5.70000E+00 Dt=  5.00000E-02 [y] snes_conv_reason:   11
  newton =   1 [     133] linear =   132 [     17415] cuts =  0 [   0]
  --> max chng: dpmx=   9.4948E-01 dtmpmx=   7.0317E-02

== TH FLOW =====================================================================
 Step    127 Time=  5.75000E+00 Dt=  5.00000E-02 [y] snes_conv_reason:   11
  newton =   1 [     134] linear =   130 [     17545] cuts =  0 [   0]
  --> max chng: dpmx=   9.5701E-01 dtmpmx=   6.9800E-02

== TH FLOW =====================================================================
 Step    128 Time=  5.80000E+00 Dt=  5.00000E-02 [y] snes_conv_reason:   11
  newton =   1 [     135] linear =   130 [     17675] cuts =  0 [   0]
  --> max chng: dpmx=   9.6456E-01 dtmpmx=   6.9291E-02

== TH FLOW =====================================================================
 Step    129 Time=  5.85000E+00 Dt=  5.00000E-02 [y] snes_conv_reason:   11
  newton =   1 [     136] linear =   136 [     17811] cuts =  0 [   0]
  --> max chng: dpmx=   9.7212E-01 dtmpmx=   6.8790E-02

== TH FLOW =====================================================================
 Step    130 Time=  5.90000E+00 Dt=  5.00000E-02 [y] snes_conv_reason:   11
  newton =   1 [     137] linear =   136 [     17947] cuts =  0 [   0]
  --> max chng: dpmx=   9.7967E-01 dtmpmx=   6.8296E-02

== TH FLOW =====================================================================
 Step    131 Time=  5.95000E+00 Dt=  5.00000E-02 [y] snes_conv_reason:   11
  newton =   1 [     138] linear =   138 [     18085] cuts =  0 [   0]
  --> max chng: dpmx=   9.8719E-01 dtmpmx=   6.7810E-02

== TH FLOW =====================================================================
 Step    132 Time=  6.00000E+00 Dt=  5.00000E-02 [y] snes_conv_reason:   11
  newton =   1 [     139] linear =   135 [     18220] cuts =  0 [   0]
  --> max chng: dpmx=   9.9474E-01 dtmpmx=   6.7331E-02

== TH FLOW =====================================================================
 Step    133 Time=  6.05000E+00 Dt=  5.00000E-02 [y] snes_conv_reason:    3
  newton =   1 [     140] linear =   139 [     18359] cuts =  0 [   0]
  --> max chng: dpmx=   1.0026E+00 dtmpmx=   6.6859E-02

== TH FLOW =====================================================================
 Step    134 Time=  6.10000E+00 Dt=  5.00000E-02 [y] snes_conv_reason:    3
  newton =   1 [     141] linear =   134 [     18493] cuts =  0 [   0]
  --> max chng: dpmx=   1.0101E+00 dtmpmx=   6.6394E-02

== TH FLOW =====================================================================
 Step    135 Time=  6.15000E+00 Dt=  5.00000E-02 [y] snes_conv_reason:    3
  newton =   1 [     142] linear =   134 [     18627] cuts =  0 [   0]
  --> max chng: dpmx=   1.0179E+00 dtmpmx=   6.5935E-02

== TH FLOW =====================================================================
 Step    136 Time=  6.20000E+00 Dt=  5.00000E-02 [y] snes_conv_reason:    3
  newton =   1 [     143] linear =   132 [     18759] cuts =  0 [   0]
  --> max chng: dpmx=   1.0256E+00 dtmpmx=   6.5483E-02

== TH FLOW =====================================================================
 Step    137 Time=  6.25000E+00 Dt=  5.00000E-02 [y] snes_conv_reason:    3
  newton =   1 [     144] linear =   136 [     18895] cuts =  0 [   0]
  --> max chng: dpmx=   1.0332E+00 dtmpmx=   6.5038E-02

== TH FLOW =====================================================================
 Step    138 Time=  6.30000E+00 Dt=  5.00000E-02 [y] snes_conv_reason:    3
  newton =   1 [     145] linear =   128 [     19023] cuts =  0 [   0]
  --> max chng: dpmx=   1.0407E+00 dtmpmx=   6.4599E-02

== TH FLOW =====================================================================
 Step    139 Time=  6.35000E+00 Dt=  5.00000E-02 [y] snes_conv_reason:    3
  newton =   1 [     146] linear =   133 [     19156] cuts =  0 [   0]
  --> max chng: dpmx=   1.0486E+00 dtmpmx=   6.4166E-02

== TH FLOW =====================================================================
 Step    140 Time=  6.40000E+00 Dt=  5.00000E-02 [y] snes_conv_reason:    3
  newton =   1 [     147] linear =   132 [     19288] cuts =  0 [   0]
  --> max chng: dpmx=   1.0561E+00 dtmpmx=   6.3739E-02

== TH FLOW =====================================================================
 Step    141 Time=  6.45000E+00 Dt=  5.00000E-02 [y] snes_conv_reason:    3
  newton =   1 [     148] linear =   133 [     19421] cuts =  0 [   0]
  --> max chng: dpmx=   1.0639E+00 dtmpmx=   6.3318E-02

== TH FLOW =====================================================================
 Step    142 Time=  6.50000E+00 Dt=  5.00000E-02 [y] snes_conv_reason:    3
  newton =   1 [     149] linear =   127 [     19548] cuts =  0 [   0]
  --> max chng: dpmx=   1.0715E+00 dtmpmx=   6.2902E-02

== TH FLOW =====================================================================
 Step    143 Time=  6.55000E+00 Dt=  5.00000E-02 [y] snes_conv_reason:    3
  newton =   1 [     150] linear =   129 [     19677] cuts =  0 [   0]
  --> max chng: dpmx=   1.0792E+00 dtmpmx=   6.2492E-02

== TH FLOW =====================================================================
 Step    144 Time=  6.60000E+00 Dt=  5.00000E-02 [y] snes_conv_reason:    3
  newton =   1 [     151] linear =   130 [     19807] cuts =  0 [   0]
  --> max chng: dpmx=   1.0869E+00 dtmpmx=   6.2088E-02

== TH FLOW =====================================================================
 Step    145 Time=  6.65000E+00 Dt=  5.00000E-02 [y] snes_conv_reason:    3
  newton =   1 [     152] linear =   130 [     19937] cuts =  0 [   0]
  --> max chng: dpmx=   1.0947E+00 dtmpmx=   6.1690E-02

== TH FLOW =====================================================================
 Step    146 Time=  6.70000E+00 Dt=  5.00000E-02 [y] snes_conv_reason:    3
  newton =   1 [     153] linear =   130 [     20067] cuts =  0 [   0]
  --> max chng: dpmx=   1.1027E+00 dtmpmx=   6.1296E-02

== TH FLOW =====================================================================
 Step    147 Time=  6.75000E+00 Dt=  5.00000E-02 [y] snes_conv_reason:    3
  newton =   1 [     154] linear =   124 [     20191] cuts =  0 [   0]
  --> max chng: dpmx=   1.1102E+00 dtmpmx=   6.0908E-02

== TH FLOW =====================================================================
 Step    148 Time=  6.80000E+00 Dt=  5.00000E-02 [y] snes_conv_reason:    3
  newton =   1 [     155] linear =   130 [     20321] cuts =  0 [   0]
  --> max chng: dpmx=   1.1180E+00 dtmpmx=   6.0525E-02

== TH FLOW =====================================================================
 Step    149 Time=  6.85000E+00 Dt=  5.00000E-02 [y] snes_conv_reason:    3
  newton =   1 [     156] linear =   126 [     20447] cuts =  0 [   0]
  --> max chng: dpmx=   1.1260E+00 dtmpmx=   6.0146E-02

== TH FLOW =====================================================================
 Step    150 Time=  6.90000E+00 Dt=  5.00000E-02 [y] snes_conv_reason:    3
  newton =   1 [     157] linear =   132 [     20579] cuts =  0 [   0]
  --> max chng: dpmx=   1.1336E+00 dtmpmx=   5.9773E-02

== TH FLOW =====================================================================
 Step    151 Time=  6.95000E+00 Dt=  5.00000E-02 [y] snes_conv_reason:    3
  newton =   1 [     158] linear =   125 [     20704] cuts =  0 [   0]
  --> max chng: dpmx=   1.1414E+00 dtmpmx=   5.9405E-02

== TH FLOW =====================================================================
 Step    152 Time=  7.00000E+00 Dt=  5.00000E-02 [y] snes_conv_reason:    3
  newton =   1 [     159] linear =   131 [     20835] cuts =  0 [   0]
  --> max chng: dpmx=   1.1493E+00 dtmpmx=   5.9041E-02

== TH FLOW =====================================================================
 Step    153 Time=  7.05000E+00 Dt=  5.00000E-02 [y] snes_conv_reason:    3
  newton =   1 [     160] linear =   130 [     20965] cuts =  0 [   0]
  --> max chng: dpmx=   1.1567E+00 dtmpmx=   5.8682E-02

== TH FLOW =====================================================================
 Step    154 Time=  7.10000E+00 Dt=  5.00000E-02 [y] snes_conv_reason:    3
  newton =   1 [     161] linear =   131 [     21096] cuts =  0 [   0]
  --> max chng: dpmx=   1.1649E+00 dtmpmx=   5.8327E-02

== TH FLOW =====================================================================
 Step    155 Time=  7.15000E+00 Dt=  5.00000E-02 [y] snes_conv_reason:    3
  newton =   1 [     162] linear =   132 [     21228] cuts =  0 [   0]
  --> max chng: dpmx=   1.1725E+00 dtmpmx=   5.7977E-02

== TH FLOW =====================================================================
 Step    156 Time=  7.20000E+00 Dt=  5.00000E-02 [y] snes_conv_reason:    3
  newton =   1 [     163] linear =   132 [     21360] cuts =  0 [   0]
  --> max chng: dpmx=   1.1802E+00 dtmpmx=   5.7631E-02

== TH FLOW =====================================================================
 Step    157 Time=  7.25000E+00 Dt=  5.00000E-02 [y] snes_conv_reason:    3
  newton =   1 [     164] linear =   131 [     21491] cuts =  0 [   0]
  --> max chng: dpmx=   1.1882E+00 dtmpmx=   5.7289E-02

== TH FLOW =====================================================================
 Step    158 Time=  7.30000E+00 Dt=  5.00000E-02 [y] snes_conv_reason:    3
  newton =   1 [     165] linear =   126 [     21617] cuts =  0 [   0]
  --> max chng: dpmx=   1.1962E+00 dtmpmx=   5.6952E-02

== TH FLOW =====================================================================
 Step    159 Time=  7.35000E+00 Dt=  5.00000E-02 [y] snes_conv_reason:    3
  newton =   1 [     166] linear =   127 [     21744] cuts =  0 [   0]
  --> max chng: dpmx=   1.2037E+00 dtmpmx=   5.6618E-02

== TH FLOW =====================================================================
 Step    160 Time=  7.40000E+00 Dt=  5.00000E-02 [y] snes_conv_reason:    3
  newton =   1 [     167] linear =   123 [     21867] cuts =  0 [   0]
  --> max chng: dpmx=   1.2119E+00 dtmpmx=   5.6289E-02

== TH FLOW =====================================================================
 Step    161 Time=  7.45000E+00 Dt=  5.00000E-02 [y] snes_conv_reason:    3
  newton =   1 [     168] linear =   123 [     21990] cuts =  0 [   0]
  --> max chng: dpmx=   1.2195E+00 dtmpmx=   5.5963E-02

== TH FLOW =====================================================================
 Step    162 Time=  7.50000E+00 Dt=  5.00000E-02 [y] snes_conv_reason:    3
  newton =   1 [     169] linear =   123 [     22113] cuts =  0 [   0]
  --> max chng: dpmx=   1.2278E+00 dtmpmx=   5.5642E-02

== TH FLOW =====================================================================
 Step    163 Time=  7.55000E+00 Dt=  5.00000E-02 [y] snes_conv_reason:    3
  newton =   1 [     170] linear =   130 [     22243] cuts =  0 [   0]
  --> max chng: dpmx=   1.2353E+00 dtmpmx=   5.5324E-02

== TH FLOW =====================================================================
 Step    164 Time=  7.60000E+00 Dt=  5.00000E-02 [y] snes_conv_reason:    3
  newton =   1 [     171] linear =   130 [     22373] cuts =  0 [   0]
  --> max chng: dpmx=   1.2432E+00 dtmpmx=   5.5010E-02

== TH FLOW =====================================================================
 Step    165 Time=  7.65000E+00 Dt=  5.00000E-02 [y] snes_conv_reason:    3
  newton =   1 [     172] linear =   131 [     22504] cuts =  0 [   0]
  --> max chng: dpmx=   1.2511E+00 dtmpmx=   5.4700E-02

== TH FLOW =====================================================================
 Step    166 Time=  7.70000E+00 Dt=  5.00000E-02 [y] snes_conv_reason:    3
  newton =   1 [     173] linear =   129 [     22633] cuts =  0 [   0]
  --> max chng: dpmx=   1.2591E+00 dtmpmx=   5.4393E-02

== TH FLOW =====================================================================
 Step    167 Time=  7.75000E+00 Dt=  5.00000E-02 [y] snes_conv_reason:    3
  newton =   1 [     174] linear =   128 [     22761] cuts =  0 [   0]
  --> max chng: dpmx=   1.2667E+00 dtmpmx=   5.4090E-02

== TH FLOW =====================================================================
 Step    168 Time=  7.80000E+00 Dt=  5.00000E-02 [y] snes_conv_reason:    3
  newton =   1 [     175] linear =   128 [     22889] cuts =  0 [   0]
  --> max chng: dpmx=   1.2747E+00 dtmpmx=   5.3790E-02

== TH FLOW =====================================================================
 Step    169 Time=  7.85000E+00 Dt=  5.00000E-02 [y] snes_conv_reason:    3
  newton =   1 [     176] linear =   128 [     23017] cuts =  0 [   0]
  --> max chng: dpmx=   1.2826E+00 dtmpmx=   5.3494E-02

== TH FLOW =====================================================================
 Step    170 Time=  7.90000E+00 Dt=  5.00000E-02 [y] snes_conv_reason:    3
  newton =   1 [     177] linear =   128 [     23145] cuts =  0 [   0]
  --> max chng: dpmx=   1.2906E+00 dtmpmx=   5.3201E-02

== TH FLOW =====================================================================
 Step    171 Time=  7.95000E+00 Dt=  5.00000E-02 [y] snes_conv_reason:    3
  newton =   1 [     178] linear =   133 [     23278] cuts =  0 [   0]
  --> max chng: dpmx=   1.2983E+00 dtmpmx=   5.2911E-02

== TH FLOW =====================================================================
 Step    172 Time=  8.00000E+00 Dt=  5.00000E-02 [y] snes_conv_reason:    3
  newton =   1 [     179] linear =   134 [     23412] cuts =  0 [   0]
  --> max chng: dpmx=   1.3066E+00 dtmpmx=   5.2625E-02

== TH FLOW =====================================================================
 Step    173 Time=  8.05000E+00 Dt=  5.00000E-02 [y] snes_conv_reason:    3
  newton =   1 [     180] linear =   131 [     23543] cuts =  0 [   0]
  --> max chng: dpmx=   1.3142E+00 dtmpmx=   5.2342E-02

== TH FLOW =====================================================================
 Step    174 Time=  8.10000E+00 Dt=  5.00000E-02 [y] snes_conv_reason:    3
  newton =   1 [     181] linear =   127 [     23670] cuts =  0 [   0]
  --> max chng: dpmx=   1.3223E+00 dtmpmx=   5.2061E-02

== TH FLOW =====================================================================
 Step    175 Time=  8.15000E+00 Dt=  5.00000E-02 [y] snes_conv_reason:    3
  newton =   1 [     182] linear =   127 [     23797] cuts =  0 [   0]
  --> max chng: dpmx=   1.3302E+00 dtmpmx=   5.1784E-02

== TH FLOW =====================================================================
 Step    176 Time=  8.20000E+00 Dt=  5.00000E-02 [y] snes_conv_reason:    3
  newton =   1 [     183] linear =   133 [     23930] cuts =  0 [   0]
  --> max chng: dpmx=   1.3383E+00 dtmpmx=   5.1510E-02

== TH FLOW =====================================================================
 Step    177 Time=  8.25000E+00 Dt=  5.00000E-02 [y] snes_conv_reason:    3
  newton =   1 [     184] linear =   132 [     24062] cuts =  0 [   0]
  --> max chng: dpmx=   1.3461E+00 dtmpmx=   5.1239E-02

== TH FLOW =====================================================================
 Step    178 Time=  8.30000E+00 Dt=  5.00000E-02 [y] snes_conv_reason:    3
  newton =   1 [     185] linear =   121 [     24183] cuts =  0 [   0]
  --> max chng: dpmx=   1.3539E+00 dtmpmx=   5.0971E-02

== TH FLOW =====================================================================
 Step    179 Time=  8.35000E+00 Dt=  5.00000E-02 [y] snes_conv_reason:    3
  newton =   1 [     186] linear =   126 [     24309] cuts =  0 [   0]
  --> max chng: dpmx=   1.3621E+00 dtmpmx=   5.0706E-02

== TH FLOW =====================================================================
 Step    180 Time=  8.40000E+00 Dt=  5.00000E-02 [y] snes_conv_reason:    3
  newton =   1 [     187] linear =   131 [     24440] cuts =  0 [   0]
  --> max chng: dpmx=   1.3698E+00 dtmpmx=   5.0444E-02

== TH FLOW =====================================================================
 Step    181 Time=  8.45000E+00 Dt=  5.00000E-02 [y] snes_conv_reason:    3
  newton =   1 [     188] linear =   133 [     24573] cuts =  0 [   0]
  --> max chng: dpmx=   1.3776E+00 dtmpmx=   5.0184E-02

== TH FLOW =====================================================================
 Step    182 Time=  8.50000E+00 Dt=  5.00000E-02 [y] snes_conv_reason:    3
  newton =   1 [     189] linear =   132 [     24705] cuts =  0 [   0]
  --> max chng: dpmx=   1.3855E+00 dtmpmx=   4.9927E-02

== TH FLOW =====================================================================
 Step    183 Time=  8.55000E+00 Dt=  5.00000E-02 [y] snes_conv_reason:    3
  newton =   1 [     190] linear =   122 [     24827] cuts =  0 [   0]
  --> max chng: dpmx=   1.3936E+00 dtmpmx=   4.9673E-02

== TH FLOW =====================================================================
 Step    184 Time=  8.60000E+00 Dt=  5.00000E-02 [y] snes_conv_reason:    3
  newton =   1 [     191] linear =   134 [     24961] cuts =  0 [   0]
  --> max chng: dpmx=   1.4011E+00 dtmpmx=   4.9421E-02

== TH FLOW =====================================================================
 Step    185 Time=  8.65000E+00 Dt=  5.00000E-02 [y] snes_conv_reason:    3
  newton =   1 [     192] linear =   125 [     25086] cuts =  0 [   0]
  --> max chng: dpmx=   1.4091E+00 dtmpmx=   4.9172E-02

== TH FLOW =====================================================================
 Step    186 Time=  8.70000E+00 Dt=  5.00000E-02 [y] snes_conv_reason:    3
  newton =   1 [     193] linear =   127 [     25213] cuts =  0 [   0]
  --> max chng: dpmx=   1.4172E+00 dtmpmx=   4.8926E-02

== TH FLOW =====================================================================
 Step    187 Time=  8.75000E+00 Dt=  5.00000E-02 [y] snes_conv_reason:    3
  newton =   1 [     194] linear =   129 [     25342] cuts =  0 [   0]
  --> max chng: dpmx=   1.4247E+00 dtmpmx=   4.8682E-02

== TH FLOW =====================================================================
 Step    188 Time=  8.80000E+00 Dt=  5.00000E-02 [y] snes_conv_reason:    3
  newton =   1 [     195] linear =   123 [     25465] cuts =  0 [   0]
  --> max chng: dpmx=   1.4326E+00 dtmpmx=   4.8441E-02

== TH FLOW =====================================================================
 Step    189 Time=  8.85000E+00 Dt=  5.00000E-02 [y] snes_conv_reason:    3
  newton =   1 [     196] linear =   126 [     25591] cuts =  0 [   0]
  --> max chng: dpmx=   1.4401E+00 dtmpmx=   4.8202E-02

== TH FLOW =====================================================================
 Step    190 Time=  8.90000E+00 Dt=  5.00000E-02 [y] snes_conv_reason:    3
  newton =   1 [     197] linear =   120 [     25711] cuts =  0 [   0]
  --> max chng: dpmx=   1.4480E+00 dtmpmx=   4.7965E-02

== TH FLOW =====================================================================
 Step    191 Time=  8.95000E+00 Dt=  5.00000E-02 [y] snes_conv_reason:    3
  newton =   1 [     198] linear =   114 [     25825] cuts =  0 [   0]
  --> max chng: dpmx=   1.4556E+00 dtmpmx=   4.7731E-02

== TH FLOW =====================================================================
 Step    192 Time=  9.00000E+00 Dt=  5.00000E-02 [y] snes_conv_reason:    3
  newton =   1 [     199] linear =   123 [     25948] cuts =  0 [   0]
  --> max chng: dpmx=   1.4628E+00 dtmpmx=   4.7499E-02

== TH FLOW =====================================================================
 Step    193 Time=  9.05000E+00 Dt=  5.00000E-02 [y] snes_conv_reason:    3
  newton =   1 [     200] linear =   127 [     26075] cuts =  0 [   0]
  --> max chng: dpmx=   1.4705E+00 dtmpmx=   4.7270E-02

== TH FLOW =====================================================================
 Step    194 Time=  9.10000E+00 Dt=  5.00000E-02 [y] snes_conv_reason:    3
  newton =   1 [     201] linear =   129 [     26204] cuts =  0 [   0]
  --> max chng: dpmx=   1.4777E+00 dtmpmx=   4.7043E-02

== TH FLOW =====================================================================
 Step    195 Time=  9.15000E+00 Dt=  5.00000E-02 [y] snes_conv_reason:    3
  newton =   1 [     202] linear =   129 [     26333] cuts =  0 [   0]
  --> max chng: dpmx=   1.4848E+00 dtmpmx=   4.6818E-02

== TH FLOW =====================================================================
 Step    196 Time=  9.20000E+00 Dt=  5.00000E-02 [y] snes_conv_reason:    3
  newton =   1 [     203] linear =   130 [     26463] cuts =  0 [   0]
  --> max chng: dpmx=   1.4920E+00 dtmpmx=   4.6595E-02

== TH FLOW =====================================================================
 Step    197 Time=  9.25000E+00 Dt=  5.00000E-02 [y] snes_conv_reason:    3
  newton =   1 [     204] linear =   123 [     26586] cuts =  0 [   0]
  --> max chng: dpmx=   1.4990E+00 dtmpmx=   4.6374E-02

== TH FLOW =====================================================================
 Step    198 Time=  9.30000E+00 Dt=  5.00000E-02 [y] snes_conv_reason:    3
  newton =   1 [     205] linear =   127 [     26713] cuts =  0 [   0]
  --> max chng: dpmx=   1.5054E+00 dtmpmx=   4.6156E-02

== TH FLOW =====================================================================
 Step    199 Time=  9.35000E+00 Dt=  5.00000E-02 [y] snes_conv_reason:    3
  newton =   1 [     206] linear =   125 [     26838] cuts =  0 [   0]
  --> max chng: dpmx=   1.5119E+00 dtmpmx=   4.5939E-02

== TH FLOW =====================================================================
 Step    200 Time=  9.40000E+00 Dt=  5.00000E-02 [y] snes_conv_reason:    3
  newton =   1 [     207] linear =   130 [     26968] cuts =  0 [   0]
  --> max chng: dpmx=   1.5182E+00 dtmpmx=   4.5725E-02

== TH FLOW =====================================================================
 Step    201 Time=  9.45000E+00 Dt=  5.00000E-02 [y] snes_conv_reason:    3
  newton =   1 [     208] linear =   130 [     27098] cuts =  0 [   0]
  --> max chng: dpmx=   1.5245E+00 dtmpmx=   4.5512E-02

== TH FLOW =====================================================================
 Step    202 Time=  9.50000E+00 Dt=  5.00000E-02 [y] snes_conv_reason:    3
  newton =   1 [     209] linear =   128 [     27226] cuts =  0 [   0]
  --> max chng: dpmx=   1.5301E+00 dtmpmx=   4.5302E-02

== TH FLOW =====================================================================
 Step    203 Time=  9.55000E+00 Dt=  5.00000E-02 [y] snes_conv_reason:    3
  newton =   1 [     210] linear =   131 [     27357] cuts =  0 [   0]
  --> max chng: dpmx=   1.5357E+00 dtmpmx=   4.5094E-02

== TH FLOW =====================================================================
 Step    204 Time=  9.60000E+00 Dt=  5.00000E-02 [y] snes_conv_reason:    3
  newton =   1 [     211] linear =   126 [     27483] cuts =  0 [   0]
  --> max chng: dpmx=   1.5407E+00 dtmpmx=   4.4887E-02

== TH FLOW =====================================================================
 Step    205 Time=  9.65000E+00 Dt=  5.00000E-02 [y] snes_conv_reason:    3
  newton =   1 [     212] linear =   126 [     27609] cuts =  0 [   0]
  --> max chng: dpmx=   1.5455E+00 dtmpmx=   4.4683E-02

== TH FLOW =====================================================================
 Step    206 Time=  9.70000E+00 Dt=  5.00000E-02 [y] snes_conv_reason:    3
  newton =   1 [     213] linear =   130 [     27739] cuts =  0 [   0]
  --> max chng: dpmx=   1.5497E+00 dtmpmx=   4.4480E-02

== TH FLOW =====================================================================
 Step    207 Time=  9.75000E+00 Dt=  5.00000E-02 [y] snes_conv_reason:    3
  newton =   1 [     214] linear =   128 [     27867] cuts =  0 [   0]
  --> max chng: dpmx=   1.5535E+00 dtmpmx=   4.4280E-02

== TH FLOW =====================================================================
 Step    208 Time=  9.80000E+00 Dt=  5.00000E-02 [y] snes_conv_reason:    3
  newton =   1 [     215] linear =   126 [     27993] cuts =  0 [   0]
  --> max chng: dpmx=   1.5565E+00 dtmpmx=   4.4081E-02

== TH FLOW =====================================================================
 Step    209 Time=  9.85000E+00 Dt=  5.00000E-02 [y] snes_conv_reason:    3
  newton =   1 [     216] linear =   125 [     28118] cuts =  0 [   0]
  --> max chng: dpmx=   1.5593E+00 dtmpmx=   4.3884E-02

== TH FLOW =====================================================================
 Step    210 Time=  9.90000E+00 Dt=  5.00000E-02 [y] snes_conv_reason:    3
  newton =   1 [     217] linear =   125 [     28243] cuts =  0 [   0]
  --> max chng: dpmx=   1.5613E+00 dtmpmx=   4.3688E-02

== TH FLOW =====================================================================
 Step    211 Time=  9.95000E+00 Dt=  5.00000E-02 [y] snes_conv_reason:    3
  newton =   1 [     218] linear =   120 [     28363] cuts =  0 [   0]
  --> max chng: dpmx=   1.5627E+00 dtmpmx=   4.3495E-02

== TH FLOW =====================================================================
 Step    212 Time=  1.00000E+01 Dt=  5.00000E-02 [y] snes_conv_reason:    3
  newton =   1 [     219] linear =   125 [     28488] cuts =  0 [   0]
  --> max chng: dpmx=   1.5634E+00 dtmpmx=   4.3303E-02

== TH FLOW =====================================================================
 Step    213 Time=  1.00500E+01 Dt=  5.00000E-02 [y] snes_conv_reason:    3
  newton =   1 [     220] linear =   126 [     28614] cuts =  0 [   0]
  --> max chng: dpmx=   1.5632E+00 dtmpmx=   4.3113E-02

== TH FLOW =====================================================================
 Step    214 Time=  1.01000E+01 Dt=  5.00000E-02 [y] snes_conv_reason:    3
  newton =   1 [     221] linear =   126 [     28740] cuts =  0 [   0]
  --> max chng: dpmx=   1.5622E+00 dtmpmx=   4.2924E-02

== TH FLOW =====================================================================
 Step    215 Time=  1.01500E+01 Dt=  5.00000E-02 [y] snes_conv_reason:    3
  newton =   1 [     222] linear =   124 [     28864] cuts =  0 [   0]
  --> max chng: dpmx=   1.5602E+00 dtmpmx=   4.2737E-02

== TH FLOW =====================================================================
 Step    216 Time=  1.02000E+01 Dt=  5.00000E-02 [y] snes_conv_reason:    3
  newton =   1 [     223] linear =   127 [     28991] cuts =  0 [   0]
  --> max chng: dpmx=   1.5572E+00 dtmpmx=   4.2552E-02

== TH FLOW =====================================================================
 Step    217 Time=  1.02500E+01 Dt=  5.00000E-02 [y] snes_conv_reason:    3
  newton =   1 [     224] linear =   132 [     29123] cuts =  0 [   0]
  --> max chng: dpmx=   1.5535E+00 dtmpmx=   4.2369E-02

== TH FLOW =====================================================================
 Step    218 Time=  1.03000E+01 Dt=  5.00000E-02 [y] snes_conv_reason:    3
  newton =   1 [     225] linear =   129 [     29252] cuts =  0 [   0]
  --> max chng: dpmx=   1.5484E+00 dtmpmx=   4.2187E-02

== TH FLOW =====================================================================
 Step    219 Time=  1.03500E+01 Dt=  5.00000E-02 [y] snes_conv_reason:    3
  newton =   1 [     226] linear =   129 [     29381] cuts =  0 [   0]
  --> max chng: dpmx=   1.5424E+00 dtmpmx=   4.2006E-02

== TH FLOW =====================================================================
 Step    220 Time=  1.04000E+01 Dt=  5.00000E-02 [y] snes_conv_reason:    3
  newton =   1 [     227] linear =   124 [     29505] cuts =  0 [   0]
  --> max chng: dpmx=   1.5349E+00 dtmpmx=   4.1828E-02

== TH FLOW =====================================================================
 Step    221 Time=  1.04500E+01 Dt=  5.00000E-02 [y] snes_conv_reason:    3
  newton =   1 [     228] linear =   127 [     29632] cuts =  0 [   0]
  --> max chng: dpmx=   1.5265E+00 dtmpmx=   4.1650E-02

== TH FLOW =====================================================================
 Step    222 Time=  1.05000E+01 Dt=  5.00000E-02 [y] snes_conv_reason:    3
  newton =   1 [     229] linear =   127 [     29759] cuts =  0 [   0]
  --> max chng: dpmx=   1.5165E+00 dtmpmx=   4.1474E-02

== TH FLOW =====================================================================
 Step    223 Time=  1.05500E+01 Dt=  5.00000E-02 [y] snes_conv_reason:    3
  newton =   1 [     230] linear =   127 [     29886] cuts =  0 [   0]
  --> max chng: dpmx=   1.5054E+00 dtmpmx=   4.1300E-02

== TH FLOW =====================================================================
 Step    224 Time=  1.06000E+01 Dt=  5.00000E-02 [y] snes_conv_reason:    3
  newton =   1 [     231] linear =   131 [     30017] cuts =  0 [   0]
  --> max chng: dpmx=   1.4929E+00 dtmpmx=   4.1127E-02

== TH FLOW =====================================================================
 Step    225 Time=  1.06500E+01 Dt=  5.00000E-02 [y] snes_conv_reason:    3
  newton =   1 [     232] linear =   131 [     30148] cuts =  0 [   0]
  --> max chng: dpmx=   1.4792E+00 dtmpmx=   4.0956E-02

== TH FLOW =====================================================================
 Step    226 Time=  1.07000E+01 Dt=  5.00000E-02 [y] snes_conv_reason:    3
  newton =   1 [     233] linear =   132 [     30280] cuts =  0 [   0]
  --> max chng: dpmx=   1.4635E+00 dtmpmx=   4.0785E-02

== TH FLOW =====================================================================
 Step    227 Time=  1.07500E+01 Dt=  5.00000E-02 [y] snes_conv_reason:    3
  newton =   1 [     234] linear =   132 [     30412] cuts =  0 [   0]
  --> max chng: dpmx=   1.4468E+00 dtmpmx=   4.0617E-02

== TH FLOW =====================================================================
 Step    228 Time=  1.08000E+01 Dt=  5.00000E-02 [y] snes_conv_reason:    3
  newton =   1 [     235] linear =   123 [     30535] cuts =  0 [   0]
  --> max chng: dpmx=   1.4287E+00 dtmpmx=   4.0450E-02

== TH FLOW =====================================================================
 Step    229 Time=  1.08500E+01 Dt=  5.00000E-02 [y] snes_conv_reason:    3
  newton =   1 [     236] linear =   130 [     30665] cuts =  0 [   0]
  --> max chng: dpmx=   1.4087E+00 dtmpmx=   4.0284E-02

== TH FLOW =====================================================================
 Step    230 Time=  1.09000E+01 Dt=  5.00000E-02 [y] snes_conv_reason:    3
  newton =   1 [     237] linear =   131 [     30796] cuts =  0 [   0]
  --> max chng: dpmx=   1.3877E+00 dtmpmx=   4.0119E-02

== TH FLOW =====================================================================
 Step    231 Time=  1.09500E+01 Dt=  5.00000E-02 [y] snes_conv_reason:    3
  newton =   1 [     238] linear =   131 [     30927] cuts =  0 [   0]
  --> max chng: dpmx=   1.3651E+00 dtmpmx=   3.9956E-02

== TH FLOW =====================================================================
 Step    232 Time=  1.10000E+01 Dt=  5.00000E-02 [y] snes_conv_reason:    3
  newton =   1 [     239] linear =   126 [     31053] cuts =  0 [   0]
  --> max chng: dpmx=   1.3409E+00 dtmpmx=   3.9794E-02

== TH FLOW =====================================================================
 Step    233 Time=  1.10500E+01 Dt=  5.00000E-02 [y] snes_conv_reason:    3
  newton =   1 [     240] linear =   131 [     31184] cuts =  0 [   0]
  --> max chng: dpmx=   1.3158E+00 dtmpmx=   3.9633E-02

== TH FLOW =====================================================================
 Step    234 Time=  1.11000E+01 Dt=  5.00000E-02 [y] snes_conv_reason:    3
  newton =   1 [     241] linear =   129 [     31313] cuts =  0 [   0]
  --> max chng: dpmx=   1.2891E+00 dtmpmx=   3.9473E-02

== TH FLOW =====================================================================
 Step    235 Time=  1.11500E+01 Dt=  5.00000E-02 [y] snes_conv_reason:    3
  newton =   1 [     242] linear =   129 [     31442] cuts =  0 [   0]
  --> max chng: dpmx=   1.2608E+00 dtmpmx=   3.9315E-02

== TH FLOW =====================================================================
 Step    236 Time=  1.12000E+01 Dt=  5.00000E-02 [y] snes_conv_reason:    3
  newton =   1 [     243] linear =   120 [     31562] cuts =  0 [   0]
  --> max chng: dpmx=   1.2316E+00 dtmpmx=   3.9158E-02

== TH FLOW =====================================================================
 Step    237 Time=  1.12500E+01 Dt=  5.00000E-02 [y] snes_conv_reason:    3
  newton =   1 [     244] linear =   129 [     31691] cuts =  0 [   0]
  --> max chng: dpmx=   1.2012E+00 dtmpmx=   3.9003E-02

== TH FLOW =====================================================================
 Step    238 Time=  1.13000E+01 Dt=  5.00000E-02 [y] snes_conv_reason:    3
  newton =   1 [     245] linear =   129 [     31820] cuts =  0 [   0]
  --> max chng: dpmx=   1.1698E+00 dtmpmx=   3.8848E-02

== TH FLOW =====================================================================
 Step    239 Time=  1.13500E+01 Dt=  5.00000E-02 [y] snes_conv_reason:    3
  newton =   1 [     246] linear =   124 [     31944] cuts =  0 [   0]
  --> max chng: dpmx=   1.1373E+00 dtmpmx=   3.8695E-02

== TH FLOW =====================================================================
 Step    240 Time=  1.14000E+01 Dt=  5.00000E-02 [y] snes_conv_reason:    3
  newton =   1 [     247] linear =   129 [     32073] cuts =  0 [   0]
  --> max chng: dpmx=   1.1039E+00 dtmpmx=   3.8543E-02

== TH FLOW =====================================================================
 Step    241 Time=  1.14500E+01 Dt=  5.00000E-02 [y] snes_conv_reason:    3
  newton =   1 [     248] linear =   127 [     32200] cuts =  0 [   0]
  --> max chng: dpmx=   1.0699E+00 dtmpmx=   3.8392E-02

== TH FLOW =====================================================================
 Step    242 Time=  1.15000E+01 Dt=  5.00000E-02 [y] snes_conv_reason:    3
  newton =   1 [     249] linear =   131 [     32331] cuts =  0 [   0]
  --> max chng: dpmx=   1.0349E+00 dtmpmx=   3.8242E-02

== TH FLOW =====================================================================
 Step    243 Time=  1.15500E+01 Dt=  5.00000E-02 [y] snes_conv_reason:   11
  newton =   1 [     250] linear =   124 [     32455] cuts =  0 [   0]
  --> max chng: dpmx=   9.9955E-01 dtmpmx=   3.8093E-02

== TH FLOW =====================================================================
 Step    244 Time=  1.16000E+01 Dt=  5.00000E-02 [y] snes_conv_reason:   11
  newton =   1 [     251] linear =   127 [     32582] cuts =  0 [   0]
  --> max chng: dpmx=   9.6385E-01 dtmpmx=   3.7945E-02

== TH FLOW =====================================================================
 Step    245 Time=  1.16500E+01 Dt=  5.00000E-02 [y] snes_conv_reason:   11
  newton =   1 [     252] linear =   132 [     32714] cuts =  0 [   0]
  --> max chng: dpmx=   9.2751E-01 dtmpmx=   3.7799E-02

== TH FLOW =====================================================================
 Step    246 Time=  1.17000E+01 Dt=  5.00000E-02 [y] snes_conv_reason:   11
  newton =   1 [     253] linear =   126 [     32840] cuts =  0 [   0]
  --> max chng: dpmx=   8.9108E-01 dtmpmx=   3.7643E-02

== TH FLOW =====================================================================
 Step    247 Time=  1.17500E+01 Dt=  5.00000E-02 [y] snes_conv_reason:   11
  newton =   1 [     254] linear =   130 [     32970] cuts =  0 [   0]
  --> max chng: dpmx=   8.5459E-01 dtmpmx=   3.7399E-02

== TH FLOW =====================================================================
 Step    248 Time=  1.18000E+01 Dt=  5.00000E-02 [y] snes_conv_reason:   11
  newton =   1 [     255] linear =   131 [     33101] cuts =  0 [   0]
  --> max chng: dpmx=   8.1815E-01 dtmpmx=   3.7054E-02

== TH FLOW =====================================================================
 Step    249 Time=  1.18500E+01 Dt=  5.00000E-02 [y] snes_conv_reason:   11
  newton =   1 [     256] linear =   132 [     33233] cuts =  0 [   0]
  --> max chng: dpmx=   7.8177E-01 dtmpmx=   3.6611E-02

== TH FLOW =====================================================================
 Step    250 Time=  1.19000E+01 Dt=  5.00000E-02 [y] snes_conv_reason:   11
  newton =   1 [     257] linear =   134 [     33367] cuts =  0 [   0]
  --> max chng: dpmx=   7.4563E-01 dtmpmx=   3.6074E-02

== TH FLOW =====================================================================
 Step    251 Time=  1.19500E+01 Dt=  5.00000E-02 [y] snes_conv_reason:   11
  newton =   1 [     258] linear =   131 [     33498] cuts =  0 [   0]
  --> max chng: dpmx=   7.1002E-01 dtmpmx=   3.5449E-02

== TH FLOW =====================================================================
 Step    252 Time=  1.20000E+01 Dt=  5.00000E-02 [y] snes_conv_reason:   11
  newton =   1 [     259] linear =   133 [     33631] cuts =  0 [   0]
  --> max chng: dpmx=   6.7448E-01 dtmpmx=   3.4742E-02

== TH FLOW =====================================================================
 Step    253 Time=  1.20500E+01 Dt=  5.00000E-02 [y] snes_conv_reason:   11
  newton =   1 [     260] linear =   133 [     33764] cuts =  0 [   0]
  --> max chng: dpmx=   6.3989E-01 dtmpmx=   3.3958E-02

== TH FLOW =====================================================================
 Step    254 Time=  1.21000E+01 Dt=  5.00000E-02 [y] snes_conv_reason:   11
  newton =   1 [     261] linear =   129 [     33893] cuts =  0 [   0]
  --> max chng: dpmx=   6.0583E-01 dtmpmx=   3.3105E-02

== TH FLOW =====================================================================
 Step    255 Time=  1.21500E+01 Dt=  5.00000E-02 [y] snes_conv_reason:   11
  newton =   1 [     262] linear =   133 [     34026] cuts =  0 [   0]
  --> max chng: dpmx=   5.7246E-01 dtmpmx=   3.2224E-02

== TH FLOW =====================================================================
 Step    256 Time=  1.22000E+01 Dt=  5.00000E-02 [y] snes_conv_reason:   11
  newton =   1 [     263] linear =   134 [     34160] cuts =  0 [   0]
  --> max chng: dpmx=   5.3984E-01 dtmpmx=   3.1334E-02

== TH FLOW =====================================================================
 Step    257 Time=  1.22500E+01 Dt=  5.00000E-02 [y] snes_conv_reason:   11
  newton =   1 [     264] linear =   134 [     34294] cuts =  0 [   0]
  --> max chng: dpmx=   5.0830E-01 dtmpmx=   3.0390E-02

[...]
 Step    493 Time=  2.40500E+01 Dt=  5.00000E-02 [y] snes_conv_reason:   11
  newton =   1 [     500] linear =   136 [     63957] cuts =  0 [   0]
  --> max chng: dpmx=   3.4393E-04 dtmpmx=   1.8199E-05

== TH FLOW =====================================================================
 Step    494 Time=  2.41000E+01 Dt=  5.00000E-02 [y] snes_conv_reason:   11
  newton =   1 [     501] linear =   137 [     64094] cuts =  0 [   0]
  --> max chng: dpmx=   3.2229E-04 dtmpmx=   1.7295E-05

== TH FLOW =====================================================================
 Step    495 Time=  2.41500E+01 Dt=  5.00000E-02 [y] snes_conv_reason:   11
  newton =   1 [     502] linear =   139 [     64233] cuts =  0 [   0]
  --> max chng: dpmx=   3.0169E-04 dtmpmx=   1.6418E-05

== TH FLOW =====================================================================
 Step    496 Time=  2.42000E+01 Dt=  5.00000E-02 [y] snes_conv_reason:   11
  newton =   1 [     503] linear =   141 [     64374] cuts =  0 [   0]
  --> max chng: dpmx=   2.8207E-04 dtmpmx=   1.5570E-05

== TH FLOW =====================================================================
 Step    497 Time=  2.42500E+01 Dt=  5.00000E-02 [y] snes_conv_reason:   11
  newton =   1 [     504] linear =   138 [     64512] cuts =  0 [   0]
  --> max chng: dpmx=   2.6333E-04 dtmpmx=   1.4748E-05

== TH FLOW =====================================================================
 Step    498 Time=  2.43000E+01 Dt=  5.00000E-02 [y] snes_conv_reason:   11
  newton =   1 [     505] linear =   138 [     64650] cuts =  0 [   0]
  --> max chng: dpmx=   2.4563E-04 dtmpmx=   1.3955E-05

== TH FLOW =====================================================================
 Step    499 Time=  2.43500E+01 Dt=  5.00000E-02 [y] snes_conv_reason:   11
  newton =   1 [     506] linear =   138 [     64788] cuts =  0 [   0]
  --> max chng: dpmx=   2.2882E-04 dtmpmx=   1.3189E-05

== TH FLOW =====================================================================
 Step    500 Time=  2.44000E+01 Dt=  5.00000E-02 [y] snes_conv_reason:   11
  newton =   1 [     507] linear =   136 [     64924] cuts =  0 [   0]
  --> max chng: dpmx=   2.1285E-04 dtmpmx=   1.2451E-05

== TH FLOW =====================================================================
 Step    501 Time=  2.44500E+01 Dt=  5.00000E-02 [y] snes_conv_reason:   11
  newton =   1 [     508] linear =   136 [     65060] cuts =  0 [   0]
  --> max chng: dpmx=   1.9773E-04 dtmpmx=   1.1741E-05

== TH FLOW =====================================================================
 Step    502 Time=  2.45000E+01 Dt=  5.00000E-02 [y] snes_conv_reason:   11
  newton =   1 [     509] linear =   133 [     65193] cuts =  0 [   0]
  --> max chng: dpmx=   1.8345E-04 dtmpmx=   1.1057E-05

== TH FLOW =====================================================================
 Step    503 Time=  2.45500E+01 Dt=  5.00000E-02 [y] snes_conv_reason:   11
  newton =   1 [     510] linear =   136 [     65329] cuts =  0 [   0]
  --> max chng: dpmx=   1.6994E-04 dtmpmx=   1.0401E-05

== TH FLOW =====================================================================
 Step    504 Time=  2.46000E+01 Dt=  5.00000E-02 [y] snes_conv_reason:   11
  newton =   1 [     511] linear =   136 [     65465] cuts =  0 [   0]
  --> max chng: dpmx=   1.5721E-04 dtmpmx=   9.7706E-06

== TH FLOW =====================================================================
 Step    505 Time=  2.46500E+01 Dt=  5.00000E-02 [y] snes_conv_reason:   11
  newton =   1 [     512] linear =   136 [     65601] cuts =  0 [   0]
  --> max chng: dpmx=   1.4518E-04 dtmpmx=   9.1667E-06

== TH FLOW =====================================================================
 Step    506 Time=  2.47000E+01 Dt=  5.00000E-02 [y] snes_conv_reason:   11
  newton =   1 [     513] linear =   136 [     65737] cuts =  0 [   0]
  --> max chng: dpmx=   1.3388E-04 dtmpmx=   8.5887E-06

== TH FLOW =====================================================================
 Step    507 Time=  2.47500E+01 Dt=  5.00000E-02 [y] snes_conv_reason:   11
  newton =   1 [     514] linear =   133 [     65870] cuts =  0 [   0]
  --> max chng: dpmx=   1.2324E-04 dtmpmx=   8.0358E-06

== TH FLOW =====================================================================
 Step    508 Time=  2.48000E+01 Dt=  5.00000E-02 [y] snes_conv_reason:   11
  newton =   1 [     515] linear =   136 [     66006] cuts =  0 [   0]
  --> max chng: dpmx=   1.1325E-04 dtmpmx=   7.5079E-06

== TH FLOW =====================================================================
 Step    509 Time=  2.48500E+01 Dt=  5.00000E-02 [y] snes_conv_reason:   11
  newton =   1 [     516] linear =   139 [     66145] cuts =  0 [   0]
  --> max chng: dpmx=   1.0388E-04 dtmpmx=   7.0041E-06

== TH FLOW =====================================================================
 Step    510 Time=  2.49000E+01 Dt=  5.00000E-02 [y] snes_conv_reason:   11
  newton =   1 [     517] linear =   140 [     66285] cuts =  0 [   0]
  --> max chng: dpmx=   9.5099E-05 dtmpmx=   6.5240E-06

== TH FLOW =====================================================================
 Step    511 Time=  2.49500E+01 Dt=  5.00000E-02 [y] snes_conv_reason:   11
  newton =   1 [     518] linear =   139 [     66424] cuts =  0 [   0]
  --> max chng: dpmx=   8.6882E-05 dtmpmx=   6.0671E-06

== TH FLOW =====================================================================
 Step    512 Time=  2.50000E+01 Dt=  5.00000E-02 [y] snes_conv_reason:   11
  newton =   1 [     519] linear =   137 [     66561] cuts =  0 [   0]
  --> max chng: dpmx=   7.9226E-05 dtmpmx=   5.6326E-06

== TH FLOW =====================================================================
 Step    513 Time=  2.50500E+01 Dt=  5.00000E-02 [y] snes_conv_reason:   11
  newton =   1 [     520] linear =   138 [     66699] cuts =  0 [   0]
  --> max chng: dpmx=   7.2061E-05 dtmpmx=   5.2199E-06

== TH FLOW =====================================================================
 Step    514 Time=  2.51000E+01 Dt=  5.00000E-02 [y] snes_conv_reason:   11
  newton =   1 [     521] linear =   135 [     66834] cuts =  0 [   0]
  --> max chng: dpmx=   6.5398E-05 dtmpmx=   4.8284E-06

== TH FLOW =====================================================================
 Step    515 Time=  2.51500E+01 Dt=  5.00000E-02 [y] snes_conv_reason:   11
  newton =   1 [     522] linear =   137 [     66971] cuts =  0 [   0]
  --> max chng: dpmx=   5.9205E-05 dtmpmx=   4.4575E-06

== TH FLOW =====================================================================
 Step    516 Time=  2.52000E+01 Dt=  5.00000E-02 [y] snes_conv_reason:   11
  newton =   1 [     523] linear =   138 [     67109] cuts =  0 [   0]
  --> max chng: dpmx=   5.3448E-05 dtmpmx=   4.1063E-06

== TH FLOW =====================================================================
 Step    517 Time=  2.52500E+01 Dt=  5.00000E-02 [y] snes_conv_reason:   11
  newton =   1 [     524] linear =   135 [     67244] cuts =  0 [   0]
  --> max chng: dpmx=   4.8109E-05 dtmpmx=   3.7744E-06

== TH FLOW =====================================================================
 Step    518 Time=  2.53000E+01 Dt=  5.00000E-02 [y] snes_conv_reason:   11
  newton =   1 [     525] linear =   134 [     67378] cuts =  0 [   0]
  --> max chng: dpmx=   4.3185E-05 dtmpmx=   3.4608E-06

== TH FLOW =====================================================================
 Step    519 Time=  2.53500E+01 Dt=  5.00000E-02 [y] snes_conv_reason:   11
  newton =   1 [     526] linear =   133 [     67511] cuts =  0 [   0]
  --> max chng: dpmx=   3.8637E-05 dtmpmx=   3.1652E-06

== TH FLOW =====================================================================
 Step    520 Time=  2.54000E+01 Dt=  5.00000E-02 [y] snes_conv_reason:   11
  newton =   1 [     527] linear =   135 [     67646] cuts =  0 [   0]
  --> max chng: dpmx=   3.4442E-05 dtmpmx=   2.8865E-06

== TH FLOW =====================================================================
 Step    521 Time=  2.54500E+01 Dt=  5.00000E-02 [y] snes_conv_reason:   11
  newton =   1 [     528] linear =   137 [     67783] cuts =  0 [   0]
  --> max chng: dpmx=   3.0579E-05 dtmpmx=   2.6242E-06

== TH FLOW =====================================================================
 Step    522 Time=  2.55000E+01 Dt=  5.00000E-02 [y] snes_conv_reason:   11
  newton =   1 [     529] linear =   134 [     67917] cuts =  0 [   0]
  --> max chng: dpmx=   3.0086E-05 dtmpmx=   2.3777E-06

== TH FLOW =====================================================================
 Step    523 Time=  2.55500E+01 Dt=  5.00000E-02 [y] snes_conv_reason:   11
  newton =   1 [     530] linear =   134 [     68051] cuts =  0 [   0]
  --> max chng: dpmx=   3.1809E-05 dtmpmx=   2.1463E-06

== TH FLOW =====================================================================
 Step    524 Time=  2.56000E+01 Dt=  5.00000E-02 [y] snes_conv_reason:   11
  newton =   1 [     531] linear =   139 [     68190] cuts =  0 [   0]
  --> max chng: dpmx=   3.3404E-05 dtmpmx=   1.9291E-06

== TH FLOW =====================================================================
 Step    525 Time=  2.56500E+01 Dt=  5.00000E-02 [y] snes_conv_reason:   11
  newton =   1 [     532] linear =   135 [     68325] cuts =  0 [   0]
  --> max chng: dpmx=   3.4895E-05 dtmpmx=   1.7258E-06

== TH FLOW =====================================================================
 Step    526 Time=  2.57000E+01 Dt=  5.00000E-02 [y] snes_conv_reason:   11
  newton =   1 [     533] linear =   131 [     68456] cuts =  0 [   0]
  --> max chng: dpmx=   3.6267E-05 dtmpmx=   1.5355E-06

== TH FLOW =====================================================================
 Step    527 Time=  2.57500E+01 Dt=  5.00000E-02 [y] snes_conv_reason:   11
  newton =   1 [     534] linear =   131 [     68587] cuts =  0 [   0]
  --> max chng: dpmx=   3.7540E-05 dtmpmx=   1.3576E-06

== TH FLOW =====================================================================
 Step    528 Time=  2.58000E+01 Dt=  5.00000E-02 [y] snes_conv_reason:   11
  newton =   1 [     535] linear =   133 [     68720] cuts =  0 [   0]
  --> max chng: dpmx=   3.8704E-05 dtmpmx=   1.1916E-06

== TH FLOW =====================================================================
 Step    529 Time=  2.58500E+01 Dt=  5.00000E-02 [y] snes_conv_reason:   11
  newton =   1 [     536] linear =   133 [     68853] cuts =  0 [   0]
  --> max chng: dpmx=   3.9759E-05 dtmpmx=   1.0368E-06

== TH FLOW =====================================================================
 Step    530 Time=  2.59000E+01 Dt=  5.00000E-02 [y] snes_conv_reason:   11
  newton =   1 [     537] linear =   135 [     68988] cuts =  0 [   0]
  --> max chng: dpmx=   4.0725E-05 dtmpmx=   8.9267E-07

== TH FLOW =====================================================================
 Step    531 Time=  2.59500E+01 Dt=  5.00000E-02 [y] snes_conv_reason:   11
  newton =   1 [     538] linear =   128 [     69116] cuts =  0 [   0]
  --> max chng: dpmx=   4.1596E-05 dtmpmx=   7.6022E-07

== TH FLOW =====================================================================
 Step    532 Time=  2.60000E+01 Dt=  5.00000E-02 [y] snes_conv_reason:   11
  newton =   1 [     539] linear =   132 [     69248] cuts =  0 [   0]
  --> max chng: dpmx=   4.2369E-05 dtmpmx=   6.9389E-07

== TH FLOW =====================================================================
 Step    533 Time=  2.60500E+01 Dt=  5.00000E-02 [y] snes_conv_reason:   11
  newton =   1 [     540] linear =   133 [     69381] cuts =  0 [   0]
  --> max chng: dpmx=   4.3068E-05 dtmpmx=   6.9297E-07

== TH FLOW =====================================================================
 Step    534 Time=  2.61000E+01 Dt=  5.00000E-02 [y] snes_conv_reason:   11
  newton =   1 [     541] linear =   133 [     69514] cuts =  0 [   0]
  --> max chng: dpmx=   4.3684E-05 dtmpmx=   6.9223E-07

== TH FLOW =====================================================================
 Step    535 Time=  2.61500E+01 Dt=  5.00000E-02 [y] snes_conv_reason:   11
  newton =   1 [     542] linear =   121 [     69635] cuts =  0 [   0]
  --> max chng: dpmx=   4.4222E-05 dtmpmx=   6.9147E-07

== TH FLOW =====================================================================
 Step    536 Time=  2.62000E+01 Dt=  5.00000E-02 [y] snes_conv_reason:   11
  newton =   1 [     543] linear =   129 [     69764] cuts =  0 [   0]
  --> max chng: dpmx=   4.4683E-05 dtmpmx=   6.9076E-07

== TH FLOW =====================================================================
 Step    537 Time=  2.62500E+01 Dt=  5.00000E-02 [y] snes_conv_reason:   11
  newton =   1 [     544] linear =   121 [     69885] cuts =  0 [   0]
  --> max chng: dpmx=   4.5081E-05 dtmpmx=   6.9002E-07

== TH FLOW =====================================================================
 Step    538 Time=  2.63000E+01 Dt=  5.00000E-02 [y] snes_conv_reason:   11
  newton =   1 [     545] linear =   124 [     70009] cuts =  0 [   0]
  --> max chng: dpmx=   4.5424E-05 dtmpmx=   6.8927E-07

== TH FLOW =====================================================================
 Step    539 Time=  2.63500E+01 Dt=  5.00000E-02 [y] snes_conv_reason:   11
  newton =   1 [     546] linear =   132 [     70141] cuts =  0 [   0]
  --> max chng: dpmx=   4.5692E-05 dtmpmx=   6.8855E-07

== TH FLOW =====================================================================
 Step    540 Time=  2.64000E+01 Dt=  5.00000E-02 [y] snes_conv_reason:   11
  newton =   1 [     547] linear =   130 [     70271] cuts =  0 [   0]
  --> max chng: dpmx=   4.5915E-05 dtmpmx=   6.8780E-07

== TH FLOW =====================================================================
 Step    541 Time=  2.64500E+01 Dt=  5.00000E-02 [y] snes_conv_reason:   11
  newton =   1 [     548] linear =   122 [     70393] cuts =  0 [   0]
  --> max chng: dpmx=   4.6083E-05 dtmpmx=   6.8706E-07

== TH FLOW =====================================================================
 Step    542 Time=  2.65000E+01 Dt=  5.00000E-02 [y] snes_conv_reason:   11
  newton =   1 [     549] linear =   121 [     70514] cuts =  0 [   0]
  --> max chng: dpmx=   4.6194E-05 dtmpmx=   6.8628E-07

== TH FLOW =====================================================================
 Step    543 Time=  2.65500E+01 Dt=  5.00000E-02 [y] snes_conv_reason:   11
  newton =   1 [     550] linear =   126 [     70640] cuts =  0 [   0]
  --> max chng: dpmx=   4.6270E-05 dtmpmx=   6.8554E-07

== TH FLOW =====================================================================
 Step    544 Time=  2.66000E+01 Dt=  5.00000E-02 [y] snes_conv_reason:   11
  newton =   1 [     551] linear =   122 [     70762] cuts =  0 [   0]
  --> max chng: dpmx=   4.6299E-05 dtmpmx=   6.8479E-07

== TH FLOW =====================================================================
 Step    545 Time=  2.66500E+01 Dt=  5.00000E-02 [y] snes_conv_reason:   11
  newton =   1 [     552] linear =   127 [     70889] cuts =  0 [   0]
  --> max chng: dpmx=   4.6295E-05 dtmpmx=   6.8407E-07

== TH FLOW =====================================================================
 Step    546 Time=  2.67000E+01 Dt=  5.00000E-02 [y] snes_conv_reason:   11
  newton =   1 [     553] linear =   111 [     71000] cuts =  0 [   0]
  --> max chng: dpmx=   4.6244E-05 dtmpmx=   6.8331E-07

== TH FLOW =====================================================================
 Step    547 Time=  2.67500E+01 Dt=  5.00000E-02 [y] snes_conv_reason:   11
  newton =   1 [     554] linear =   122 [     71122] cuts =  0 [   0]
  --> max chng: dpmx=   4.6179E-05 dtmpmx=   6.8260E-07

== TH FLOW =====================================================================
 Step    548 Time=  2.68000E+01 Dt=  5.00000E-02 [y] snes_conv_reason:   11
  newton =   1 [     555] linear =   122 [     71244] cuts =  0 [   0]
  --> max chng: dpmx=   4.6060E-05 dtmpmx=   6.8180E-07

== TH FLOW =====================================================================
 Step    549 Time=  2.68500E+01 Dt=  5.00000E-02 [y] snes_conv_reason:   11
  newton =   1 [     556] linear =   115 [     71359] cuts =  0 [   0]
  --> max chng: dpmx=   4.5918E-05 dtmpmx=   6.8106E-07

== TH FLOW =====================================================================
 Step    550 Time=  2.69000E+01 Dt=  5.00000E-02 [y] snes_conv_reason:   11
  newton =   1 [     557] linear =   104 [     71463] cuts =  0 [   0]
  --> max chng: dpmx=   4.5758E-05 dtmpmx=   6.8025E-07

== TH FLOW =====================================================================
 Step    551 Time=  2.69500E+01 Dt=  5.00000E-02 [y] snes_conv_reason:   11
  newton =   1 [     558] linear =   117 [     71580] cuts =  0 [   0]
  --> max chng: dpmx=   4.5576E-05 dtmpmx=   6.7949E-07

== TH FLOW =====================================================================
 Step    552 Time=  2.70000E+01 Dt=  5.00000E-02 [y] snes_conv_reason:   11
  newton =   1 [     559] linear =   105 [     71685] cuts =  0 [   0]
  --> max chng: dpmx=   4.5361E-05 dtmpmx=   6.7869E-07

== TH FLOW =====================================================================
 Step    553 Time=  2.70500E+01 Dt=  5.00000E-02 [y] snes_conv_reason:   11
  newton =   1 [     560] linear =   124 [     71809] cuts =  0 [   0]
  --> max chng: dpmx=   4.5131E-05 dtmpmx=   6.7788E-07

== TH FLOW =====================================================================
 Step    554 Time=  2.71000E+01 Dt=  5.00000E-02 [y] snes_conv_reason:   11
  newton =   1 [     561] linear =   121 [     71930] cuts =  0 [   0]
  --> max chng: dpmx=   4.4876E-05 dtmpmx=   6.7706E-07

== TH FLOW =====================================================================
 Step    555 Time=  2.71500E+01 Dt=  5.00000E-02 [y] snes_conv_reason:   11
  newton =   1 [     562] linear =   110 [     72040] cuts =  0 [   0]
  --> max chng: dpmx=   4.4606E-05 dtmpmx=   6.7627E-07

== TH FLOW =====================================================================
 Step    556 Time=  2.72000E+01 Dt=  5.00000E-02 [y] snes_conv_reason:   11
  newton =   1 [     563] linear =   123 [     72163] cuts =  0 [   0]
  --> max chng: dpmx=   4.4332E-05 dtmpmx=   6.7546E-07

== TH FLOW =====================================================================
 Step    557 Time=  2.72500E+01 Dt=  5.00000E-02 [y] snes_conv_reason:   11
  newton =   1 [     564] linear =   110 [     72273] cuts =  0 [   0]
  --> max chng: dpmx=   4.4024E-05 dtmpmx=   6.7470E-07

== TH FLOW =====================================================================
 Step    558 Time=  2.73000E+01 Dt=  5.00000E-02 [y] snes_conv_reason:   11
  newton =   1 [     565] linear =   111 [     72384] cuts =  0 [   0]
  --> max chng: dpmx=   4.3715E-05 dtmpmx=   6.7392E-07

== TH FLOW =====================================================================
 Step    559 Time=  2.73500E+01 Dt=  5.00000E-02 [y] snes_conv_reason:   11
  newton =   1 [     566] linear =   123 [     72507] cuts =  0 [   0]
  --> max chng: dpmx=   4.3401E-05 dtmpmx=   6.7309E-07

== TH FLOW =====================================================================
 Step    560 Time=  2.74000E+01 Dt=  5.00000E-02 [y] snes_conv_reason:   11
  newton =   1 [     567] linear =   116 [     72623] cuts =  0 [   0]
  --> max chng: dpmx=   4.3058E-05 dtmpmx=   6.7230E-07

== TH FLOW =====================================================================
 Step    561 Time=  2.74500E+01 Dt=  5.00000E-02 [y] snes_conv_reason:   11
  newton =   1 [     568] linear =   124 [     72747] cuts =  0 [   0]
  --> max chng: dpmx=   4.2712E-05 dtmpmx=   6.7151E-07

== TH FLOW =====================================================================
 Step    562 Time=  2.75000E+01 Dt=  5.00000E-02 [y] snes_conv_reason:   11
  newton =   1 [     569] linear =   120 [     72867] cuts =  0 [   0]
  --> max chng: dpmx=   4.2362E-05 dtmpmx=   6.7071E-07

 Wall Clock Time:  1.3132E+02 [sec]   2.1887E+00 [min]   3.6478E-02 [hr]
