
===================
  PFLOTRAN v3.0.1
===================

 Extent of Gridded Domain
  X: 2.5000000000000000 - 97.500000000000000
  Y: 2.5000000000000000 - 1277.5000000000000
  Z: 2.5000000000000000 - 2.5000000000000000


=+=+=+=+=+=+=+=+=+=+=+=+=+=+=+=+=+=+=+=+=+=+=+=+=+=+=+=+=+=+=+=+=+=+=+=+=+=+=+=+

  Initial Condition

--------------------------------------------------------------------------------
          Flow Condition:   initial
                  Region:   all
--------------------------------------------------------------------------------

  Flow Condition: initial
    Synchronize time with update: no
    Time units: yr
    Length units: m
      Datum:
        Dataset: Unnamed Ascii Dataset
          Type: dataset_ascii_type
          Transient: no
          Array Rank:  3

    Sub Condition: pressure
      Type: hydrostatic
      Gradient:
        Dataset: Unnamed Ascii Dataset
          Type: dataset_ascii_type
          Transient: no
          Array Rank:  3
      Data:
        Dataset: Unnamed Ascii Dataset
          Type: dataset_ascii_type
          Transient: no
          Array Rank:  1

    Sub Condition: temperature
      Type: dirichlet
      Gradient:
      Data:
        Dataset: Unnamed Ascii Dataset
          Type: dataset_ascii_type
          Transient: no
          Array Rank:  1

--------------------------------------------------------------------------------

=+=+=+=+=+=+=+=+=+=+=+=+=+=+=+=+=+=+=+=+=+=+=+=+=+=+=+=+=+=+=+=+=+=+=+=+=+=+=+=+

  Boundary Condition

--------------------------------------------------------------------------------
          Flow Condition:   initial
                  Region:   north
--------------------------------------------------------------------------------

  Flow Condition: initial
    Synchronize time with update: no
    Time units: yr
    Length units: m
      Datum:
        Dataset: Unnamed Ascii Dataset
          Type: dataset_ascii_type
          Transient: no
          Array Rank:  3

    Sub Condition: pressure
      Type: hydrostatic
      Gradient:
        Dataset: Unnamed Ascii Dataset
          Type: dataset_ascii_type
          Transient: no
          Array Rank:  3
      Data:
        Dataset: Unnamed Ascii Dataset
          Type: dataset_ascii_type
          Transient: no
          Array Rank:  1

    Sub Condition: temperature
      Type: dirichlet
      Gradient:
      Data:
        Dataset: Unnamed Ascii Dataset
          Type: dataset_ascii_type
          Transient: no
          Array Rank:  1

--------------------------------------------------------------------------------

=+=+=+=+=+=+=+=+=+=+=+=+=+=+=+=+=+=+=+=+=+=+=+=+=+=+=+=+=+=+=+=+=+=+=+=+=+=+=+=+

  Boundary Condition

--------------------------------------------------------------------------------
          Flow Condition:   initial
                  Region:   south
--------------------------------------------------------------------------------

  Flow Condition: initial
    Synchronize time with update: no
    Time units: yr
    Length units: m
      Datum:
        Dataset: Unnamed Ascii Dataset
          Type: dataset_ascii_type
          Transient: no
          Array Rank:  3

    Sub Condition: pressure
      Type: hydrostatic
      Gradient:
        Dataset: Unnamed Ascii Dataset
          Type: dataset_ascii_type
          Transient: no
          Array Rank:  3
      Data:
        Dataset: Unnamed Ascii Dataset
          Type: dataset_ascii_type
          Transient: no
          Array Rank:  1

    Sub Condition: temperature
      Type: dirichlet
      Gradient:
      Data:
        Dataset: Unnamed Ascii Dataset
          Type: dataset_ascii_type
          Transient: no
          Array Rank:  1

--------------------------------------------------------------------------------

=+=+=+=+=+=+=+=+=+=+=+=+=+=+=+=+=+=+=+=+=+=+=+=+=+=+=+=+=+=+=+=+=+=+=+=+=+=+=+=+

  Source Sink

--------------------------------------------------------------------------------
          Flow Condition:   injection
                  Region:   heatpump_inject0
--------------------------------------------------------------------------------

  Flow Condition: injection
    Synchronize time with update: no
    Time units: yr
    Length units: m
      Datum:

    Sub Condition: rate
      Type: scaled volumetric rate
      Gradient:
      Data:
        Dataset: Unnamed Ascii Dataset
          Type: dataset_ascii_type
          Is transient?: yes
          Number of times:      3
          Is cyclic?: no
          Buffer:
            Rank:  2
            Dims:    1   3
            Buffer Slice Size:   0
          Array Rank:  1

    Sub Condition: temperature
      Type: dirichlet
      Gradient:
      Data:
        Dataset: Unnamed Ascii Dataset
          Type: dataset_ascii_type
          Transient: no
          Array Rank:  1

--------------------------------------------------------------------------------

 Requested processors =    16

FLOW Time Stepper
                 acceleration: on
       acceleration threshold: 5
       number of ramp entries: 5
                ramp entry #1: 2.0000
                ramp entry #2: 2.0000
                ramp entry #3: 2.0000
                ramp entry #4: 2.0000
                ramp entry #5: 2.0000
                ramp entry #6: 1.8000
                ramp entry #7: 1.6000
                ramp entry #8: 1.4000
                ramp entry #9: 1.2000
               ramp entry #10: 1.0000
               ramp entry #11: 1.0000
               ramp entry #12: 1.0000
               ramp entry #13: 1.0000
      maximum number of steps: 999999
constant time steps threshold: 5
       maximum number of cuts: 16
             reduction factor: 5.000000E-01
        maximum growth factor: 2.000000E+00

FLOW Newton Solver
                         atol: 1.000000E-50
                         rtol: 1.000000E-03
                         stol: 1.000000E-08
                         dtol: 1.000000E+04
                      maxnorm: 1.000000E+20
                    inftolres: -9.990000E+02
                    inftolupd: 1.000000E+00
                 inftolrelupd: -9.990000E+02
                 inftolsclres: -9.990000E+02
                     max iter: 50
                     min iter: 1
                         maxf: 10000
                  matrix type: baij
         precond. matrix type: baij
               inexact newton: off
            print convergence: on
   print detailed convergence: off
          check infinity norm: on

FLOW Linear Solver
                       solver: bcgs
               preconditioner: bjacobi
                         atol: 1.000000E-50
                         rtol: 1.000000E-05
                         dtol: 1.000000E+04
            maximum iteration: 10000

== TH FLOW =====================================================================
 Step      1 Time=  1.00000E-05 Dt=  1.00000E-05 [y] snes_conv_reason:   11
  newton =   1 [       1] linear =    64 [        64] cuts =  0 [   0]
  --> max chng: dpmx=   4.5671E-02 dtmpmx=   2.2750E-09

== TH FLOW =====================================================================
 Step      2 Time=  3.00000E-05 Dt=  2.00000E-05 [y] snes_conv_reason:   11
  newton =   1 [       2] linear =    64 [       128] cuts =  0 [   0]
  --> max chng: dpmx=   3.5381E-02 dtmpmx=   4.4800E-09

== TH FLOW =====================================================================
 Step      3 Time=  7.00000E-05 Dt=  4.00000E-05 [y] snes_conv_reason:   11
  newton =   1 [       3] linear =    57 [       185] cuts =  0 [   0]
  --> max chng: dpmx=   1.6139E-02 dtmpmx=   8.8916E-09

== TH FLOW =====================================================================
 Step      4 Time=  1.50000E-04 Dt=  8.00000E-05 [y] snes_conv_reason:   11
  newton =   1 [       4] linear =    70 [       255] cuts =  0 [   0]
  --> max chng: dpmx=   4.1165E-03 dtmpmx=   1.7748E-08

== TH FLOW =====================================================================
 Step      5 Time=  3.10000E-04 Dt=  1.60000E-04 [y] snes_conv_reason:   11
  newton =   1 [       5] linear =   118 [       373] cuts =  0 [   0]
  --> max chng: dpmx=   5.5997E-04 dtmpmx=   3.5487E-08

== TH FLOW =====================================================================
 Step      6 Time=  6.30000E-04 Dt=  3.20000E-04 [y] snes_conv_reason:   11
  newton =   1 [       6] linear =   117 [       490] cuts =  0 [   0]
  --> max chng: dpmx=   3.9299E-05 dtmpmx=   7.0973E-08

== TH FLOW =====================================================================
 Step      7 Time=  1.27000E-03 Dt=  6.40000E-04 [y] snes_conv_reason:   11
  newton =   1 [       7] linear =   120 [       610] cuts =  0 [   0]
  --> max chng: dpmx=   1.1583E-06 dtmpmx=   1.4195E-07

== TH FLOW =====================================================================
 Step      8 Time=  2.55000E-03 Dt=  1.28000E-03 [y] snes_conv_reason:   11
  newton =   1 [       8] linear =   119 [       729] cuts =  0 [   0]
  --> max chng: dpmx=   1.0520E-06 dtmpmx=   2.8389E-07

== TH FLOW =====================================================================
 Step      9 Time=  5.11000E-03 Dt=  2.56000E-03 [y] snes_conv_reason:   11
  newton =   1 [       9] linear =   119 [       848] cuts =  0 [   0]
  --> max chng: dpmx=   2.1438E-06 dtmpmx=   5.6779E-07

== TH FLOW =====================================================================
 Step     10 Time=  1.02300E-02 Dt=  5.12000E-03 [y] snes_conv_reason:   11
  newton =   1 [      10] linear =   123 [       971] cuts =  0 [   0]
  --> max chng: dpmx=   4.4373E-06 dtmpmx=   1.1356E-06

== TH FLOW =====================================================================
 Step     11 Time=  2.04700E-02 Dt=  1.02400E-02 [y] snes_conv_reason:   11
  newton =   1 [      11] linear =   117 [      1088] cuts =  0 [   0]
  --> max chng: dpmx=   9.4709E-06 dtmpmx=   2.2711E-06

== TH FLOW =====================================================================
 Step     12 Time=  4.09500E-02 Dt=  2.04800E-02 [y] snes_conv_reason:   11
  newton =   1 [      12] linear =   116 [      1204] cuts =  0 [   0]
  --> max chng: dpmx=   2.1336E-05 dtmpmx=   4.5423E-06

== TH FLOW =====================================================================
 Step     13 Time=  8.19100E-02 Dt=  4.09600E-02 [y] snes_conv_reason:   11
  newton =   1 [      13] linear =   122 [      1326] cuts =  0 [   0]
  --> max chng: dpmx=   5.2191E-05 dtmpmx=   9.0846E-06

== TH FLOW =====================================================================
 Step     14 Time=  1.00000E-01 Dt=  1.80900E-02 [y] snes_conv_reason:   11
  newton =   1 [      14] linear =   121 [      1447] cuts =  0 [   0]
  --> max chng: dpmx=   2.4904E-05 dtmpmx=   4.0122E-06

== TH FLOW =====================================================================
 Step     15 Time=  1.50000E-01 Dt=  5.00000E-02 [y] snes_conv_reason:   11
  newton =   1 [      15] linear =   123 [      1570] cuts =  0 [   0]
  --> max chng: dpmx=   8.2870E-05 dtmpmx=   1.1090E-05

== TH FLOW =====================================================================
 Step     16 Time=  2.00000E-01 Dt=  5.00000E-02 [y] snes_conv_reason:   11
  newton =   1 [      16] linear =   120 [      1690] cuts =  0 [   0]
  --> max chng: dpmx=   9.6843E-05 dtmpmx=   1.1090E-05

== TH FLOW =====================================================================
 Step     17 Time=  2.50000E-01 Dt=  5.00000E-02 [y] snes_conv_reason:    3
  newton =   3 [      19] linear =   345 [      2035] cuts =  0 [   0]
  --> max chng: dpmx=   1.3379E+03 dtmpmx=   3.5053E+00

== TH FLOW =====================================================================
 Step     18 Time=  3.00000E-01 Dt=  5.00000E-02 [y] snes_conv_reason:   11
  newton =   2 [      21] linear =   248 [      2283] cuts =  0 [   0]
  --> max chng: dpmx=   8.7693E+00 dtmpmx=   1.3584E+00

== TH FLOW =====================================================================
 Step     19 Time=  3.50000E-01 Dt=  5.00000E-02 [y] snes_conv_reason:   11
  newton =   2 [      23] linear =   252 [      2535] cuts =  0 [   0]
  --> max chng: dpmx=   4.4469E+00 dtmpmx=   8.7702E-01

== TH FLOW =====================================================================
 Step     20 Time=  4.00000E-01 Dt=  5.00000E-02 [y] snes_conv_reason:   11
  newton =   2 [      25] linear =   227 [      2762] cuts =  0 [   0]
  --> max chng: dpmx=   3.0401E+00 dtmpmx=   7.2423E-01

== TH FLOW =====================================================================
 Step     21 Time=  4.50000E-01 Dt=  5.00000E-02 [y] snes_conv_reason:   11
  newton =   2 [      27] linear =   238 [      3000] cuts =  0 [   0]
  --> max chng: dpmx=   2.8954E+00 dtmpmx=   5.9855E-01

== TH FLOW =====================================================================
 Step     22 Time=  5.00000E-01 Dt=  5.00000E-02 [y] snes_conv_reason:    3
  newton =   1 [      28] linear =   123 [      3123] cuts =  0 [   0]
  --> max chng: dpmx=   2.7789E+00 dtmpmx=   5.2940E-01

== TH FLOW =====================================================================
 Step     23 Time=  5.50000E-01 Dt=  5.00000E-02 [y] snes_conv_reason:    3
  newton =   1 [      29] linear =   125 [      3248] cuts =  0 [   0]
  --> max chng: dpmx=   2.6689E+00 dtmpmx=   4.6856E-01

== TH FLOW =====================================================================
 Step     24 Time=  6.00000E-01 Dt=  5.00000E-02 [y] snes_conv_reason:    3
  newton =   1 [      30] linear =   122 [      3370] cuts =  0 [   0]
  --> max chng: dpmx=   2.6111E+00 dtmpmx=   4.3349E-01

== TH FLOW =====================================================================
 Step     25 Time=  6.50000E-01 Dt=  5.00000E-02 [y] snes_conv_reason:    3
  newton =   1 [      31] linear =   126 [      3496] cuts =  0 [   0]
  --> max chng: dpmx=   2.5431E+00 dtmpmx=   3.9187E-01

== TH FLOW =====================================================================
 Step     26 Time=  7.00000E-01 Dt=  5.00000E-02 [y] snes_conv_reason:    3
  newton =   1 [      32] linear =   120 [      3616] cuts =  0 [   0]
  --> max chng: dpmx=   2.4935E+00 dtmpmx=   3.7367E-01

== TH FLOW =====================================================================
 Step     27 Time=  7.50000E-01 Dt=  5.00000E-02 [y] snes_conv_reason:    3
  newton =   1 [      33] linear =   125 [      3741] cuts =  0 [   0]
  --> max chng: dpmx=   2.4508E+00 dtmpmx=   3.4536E-01

== TH FLOW =====================================================================
 Step     28 Time=  8.00000E-01 Dt=  5.00000E-02 [y] snes_conv_reason:    3
  newton =   1 [      34] linear =   121 [      3862] cuts =  0 [   0]
  --> max chng: dpmx=   2.4029E+00 dtmpmx=   3.3106E-01

== TH FLOW =====================================================================
 Step     29 Time=  8.50000E-01 Dt=  5.00000E-02 [y] snes_conv_reason:    3
  newton =   1 [      35] linear =   125 [      3987] cuts =  0 [   0]
  --> max chng: dpmx=   2.3754E+00 dtmpmx=   3.1415E-01

== TH FLOW =====================================================================
 Step     30 Time=  9.00000E-01 Dt=  5.00000E-02 [y] snes_conv_reason:    3
  newton =   1 [      36] linear =   125 [      4112] cuts =  0 [   0]
  --> max chng: dpmx=   2.3371E+00 dtmpmx=   2.9825E-01

== TH FLOW =====================================================================
 Step     31 Time=  9.50000E-01 Dt=  5.00000E-02 [y] snes_conv_reason:    3
  newton =   1 [      37] linear =   124 [      4236] cuts =  0 [   0]
  --> max chng: dpmx=   2.3118E+00 dtmpmx=   2.8856E-01

== TH FLOW =====================================================================
 Step     32 Time=  1.00000E+00 Dt=  5.00000E-02 [y] snes_conv_reason:    3
  newton =   1 [      38] linear =   123 [      4359] cuts =  0 [   0]
  --> max chng: dpmx=   2.2829E+00 dtmpmx=   2.7371E-01

== TH FLOW =====================================================================
 Step     33 Time=  1.05000E+00 Dt=  5.00000E-02 [y] snes_conv_reason:    3
  newton =   1 [      39] linear =   125 [      4484] cuts =  0 [   0]
  --> max chng: dpmx=   2.2579E+00 dtmpmx=   2.6681E-01

== TH FLOW =====================================================================
 Step     34 Time=  1.10000E+00 Dt=  5.00000E-02 [y] snes_conv_reason:    3
  newton =   1 [      40] linear =   123 [      4607] cuts =  0 [   0]
  --> max chng: dpmx=   2.2353E+00 dtmpmx=   2.5738E-01

== TH FLOW =====================================================================
 Step     35 Time=  1.15000E+00 Dt=  5.00000E-02 [y] snes_conv_reason:    3
  newton =   1 [      41] linear =   124 [      4731] cuts =  0 [   0]
  --> max chng: dpmx=   2.2115E+00 dtmpmx=   2.4790E-01

== TH FLOW =====================================================================
 Step     36 Time=  1.20000E+00 Dt=  5.00000E-02 [y] snes_conv_reason:    3
  newton =   1 [      42] linear =   118 [      4849] cuts =  0 [   0]
  --> max chng: dpmx=   2.1930E+00 dtmpmx=   2.4237E-01

== TH FLOW =====================================================================
 Step     37 Time=  1.25000E+00 Dt=  5.00000E-02 [y] snes_conv_reason:    3
  newton =   1 [      43] linear =   125 [      4974] cuts =  0 [   0]
  --> max chng: dpmx=   2.1707E+00 dtmpmx=   2.3348E-01

== TH FLOW =====================================================================
 Step     38 Time=  1.30000E+00 Dt=  5.00000E-02 [y] snes_conv_reason:    3
  newton =   1 [      44] linear =   126 [      5100] cuts =  0 [   0]
  --> max chng: dpmx=   2.1554E+00 dtmpmx=   2.2852E-01

== TH FLOW =====================================================================
 Step     39 Time=  1.35000E+00 Dt=  5.00000E-02 [y] snes_conv_reason:    3
  newton =   1 [      45] linear =   123 [      5223] cuts =  0 [   0]
  --> max chng: dpmx=   2.1353E+00 dtmpmx=   2.2280E-01

== TH FLOW =====================================================================
 Step     40 Time=  1.40000E+00 Dt=  5.00000E-02 [y] snes_conv_reason:    3
  newton =   1 [      46] linear =   122 [      5345] cuts =  0 [   0]
  --> max chng: dpmx=   2.1219E+00 dtmpmx=   2.1573E-01

== TH FLOW =====================================================================
 Step     41 Time=  1.45000E+00 Dt=  5.00000E-02 [y] snes_conv_reason:    3
  newton =   1 [      47] linear =   122 [      5467] cuts =  0 [   0]
  --> max chng: dpmx=   2.1041E+00 dtmpmx=   2.1244E-01

== TH FLOW =====================================================================
 Step     42 Time=  1.50000E+00 Dt=  5.00000E-02 [y] snes_conv_reason:    3
  newton =   1 [      48] linear =   123 [      5590] cuts =  0 [   0]
  --> max chng: dpmx=   2.0922E+00 dtmpmx=   2.0673E-01

== TH FLOW =====================================================================
 Step     43 Time=  1.55000E+00 Dt=  5.00000E-02 [y] snes_conv_reason:    3
  newton =   1 [      49] linear =   124 [      5714] cuts =  0 [   0]
  --> max chng: dpmx=   2.0758E+00 dtmpmx=   2.0248E-01

== TH FLOW =====================================================================
 Step     44 Time=  1.60000E+00 Dt=  5.00000E-02 [y] snes_conv_reason:    3
  newton =   1 [      50] linear =   124 [      5838] cuts =  0 [   0]
  --> max chng: dpmx=   2.0644E+00 dtmpmx=   1.9885E-01

== TH FLOW =====================================================================
 Step     45 Time=  1.65000E+00 Dt=  5.00000E-02 [y] snes_conv_reason:    3
  newton =   1 [      51] linear =   125 [      5963] cuts =  0 [   0]
  --> max chng: dpmx=   2.0504E+00 dtmpmx=   1.9326E-01

== TH FLOW =====================================================================
 Step     46 Time=  1.70000E+00 Dt=  5.00000E-02 [y] snes_conv_reason:    3
  newton =   1 [      52] linear =   126 [      6089] cuts =  0 [   0]
  --> max chng: dpmx=   2.0395E+00 dtmpmx=   1.9101E-01

== TH FLOW =====================================================================
 Step     47 Time=  1.75000E+00 Dt=  5.00000E-02 [y] snes_conv_reason:    3
  newton =   1 [      53] linear =   121 [      6210] cuts =  0 [   0]
  --> max chng: dpmx=   2.0258E+00 dtmpmx=   1.8719E-01

== TH FLOW =====================================================================
 Step     48 Time=  1.80000E+00 Dt=  5.00000E-02 [y] snes_conv_reason:    3
  newton =   1 [      54] linear =   128 [      6338] cuts =  0 [   0]
  --> max chng: dpmx=   2.0167E+00 dtmpmx=   1.8329E-01

== TH FLOW =====================================================================
 Step     49 Time=  1.85000E+00 Dt=  5.00000E-02 [y] snes_conv_reason:    3
  newton =   1 [      55] linear =   130 [      6468] cuts =  0 [   0]
  --> max chng: dpmx=   2.0036E+00 dtmpmx=   1.8095E-01

== TH FLOW =====================================================================
 Step     50 Time=  1.90000E+00 Dt=  5.00000E-02 [y] snes_conv_reason:    3
  newton =   1 [      56] linear =   134 [      6602] cuts =  0 [   0]
  --> max chng: dpmx=   1.9943E+00 dtmpmx=   1.7705E-01

== TH FLOW =====================================================================
 Step     51 Time=  1.95000E+00 Dt=  5.00000E-02 [y] snes_conv_reason:    3
  newton =   1 [      57] linear =   130 [      6732] cuts =  0 [   0]
  --> max chng: dpmx=   1.9845E+00 dtmpmx=   1.7465E-01

== TH FLOW =====================================================================
 Step     52 Time=  2.00000E+00 Dt=  5.00000E-02 [y] snes_conv_reason:    3
  newton =   1 [      58] linear =   127 [      6859] cuts =  0 [   0]
  --> max chng: dpmx=   1.9746E+00 dtmpmx=   1.7205E-01

== TH FLOW =====================================================================
 Step     53 Time=  2.05000E+00 Dt=  5.00000E-02 [y] snes_conv_reason:    3
  newton =   1 [      59] linear =   127 [      6986] cuts =  0 [   0]
  --> max chng: dpmx=   1.9637E+00 dtmpmx=   1.6837E-01

== TH FLOW =====================================================================
 Step     54 Time=  2.10000E+00 Dt=  5.00000E-02 [y] snes_conv_reason:    3
  newton =   1 [      60] linear =   126 [      7112] cuts =  0 [   0]
  --> max chng: dpmx=   1.9556E+00 dtmpmx=   1.6687E-01

== TH FLOW =====================================================================
 Step     55 Time=  2.15000E+00 Dt=  5.00000E-02 [y] snes_conv_reason:    3
  newton =   1 [      61] linear =   125 [      7237] cuts =  0 [   0]
  --> max chng: dpmx=   1.9460E+00 dtmpmx=   1.6409E-01

== TH FLOW =====================================================================
 Step     56 Time=  2.20000E+00 Dt=  5.00000E-02 [y] snes_conv_reason:    3
  newton =   1 [      62] linear =   124 [      7361] cuts =  0 [   0]
  --> max chng: dpmx=   1.9381E+00 dtmpmx=   1.6161E-01

== TH FLOW =====================================================================
 Step     57 Time=  2.25000E+00 Dt=  5.00000E-02 [y] snes_conv_reason:    3
  newton =   1 [      63] linear =   125 [      7486] cuts =  0 [   0]
  --> max chng: dpmx=   1.9282E+00 dtmpmx=   1.5983E-01

== TH FLOW =====================================================================
 Step     58 Time=  2.30000E+00 Dt=  5.00000E-02 [y] snes_conv_reason:    3
  newton =   1 [      64] linear =   123 [      7609] cuts =  0 [   0]
  --> max chng: dpmx=   1.9209E+00 dtmpmx=   1.5693E-01

== TH FLOW =====================================================================
 Step     59 Time=  2.35000E+00 Dt=  5.00000E-02 [y] snes_conv_reason:    3
  newton =   1 [      65] linear =   124 [      7733] cuts =  0 [   0]
  --> max chng: dpmx=   1.9120E+00 dtmpmx=   1.5540E-01

== TH FLOW =====================================================================
 Step     60 Time=  2.40000E+00 Dt=  5.00000E-02 [y] snes_conv_reason:    3
  newton =   1 [      66] linear =   124 [      7857] cuts =  0 [   0]
  --> max chng: dpmx=   1.9049E+00 dtmpmx=   1.5340E-01

== TH FLOW =====================================================================
 Step     61 Time=  2.45000E+00 Dt=  5.00000E-02 [y] snes_conv_reason:    3
  newton =   1 [      67] linear =   124 [      7981] cuts =  0 [   0]
  --> max chng: dpmx=   1.8961E+00 dtmpmx=   1.5088E-01

== TH FLOW =====================================================================
 Step     62 Time=  2.50000E+00 Dt=  5.00000E-02 [y] snes_conv_reason:    3
  newton =   1 [      68] linear =   123 [      8104] cuts =  0 [   0]
  --> max chng: dpmx=   1.8894E+00 dtmpmx=   1.4967E-01

== TH FLOW =====================================================================
 Step     63 Time=  2.55000E+00 Dt=  5.00000E-02 [y] snes_conv_reason:    3
  newton =   1 [      69] linear =   124 [      8228] cuts =  0 [   0]
  --> max chng: dpmx=   1.8809E+00 dtmpmx=   1.4751E-01

== TH FLOW =====================================================================
 Step     64 Time=  2.60000E+00 Dt=  5.00000E-02 [y] snes_conv_reason:    3
  newton =   1 [      70] linear =   114 [      8342] cuts =  0 [   0]
  --> max chng: dpmx=   1.8744E+00 dtmpmx=   1.4580E-01

== TH FLOW =====================================================================
 Step     65 Time=  2.65000E+00 Dt=  5.00000E-02 [y] snes_conv_reason:    3
  newton =   1 [      71] linear =   122 [      8464] cuts =  0 [   0]
  --> max chng: dpmx=   1.8669E+00 dtmpmx=   1.4437E-01

== TH FLOW =====================================================================
 Step     66 Time=  2.70000E+00 Dt=  5.00000E-02 [y] snes_conv_reason:    3
  newton =   1 [      72] linear =   121 [      8585] cuts =  0 [   0]
  --> max chng: dpmx=   1.8605E+00 dtmpmx=   1.4209E-01

== TH FLOW =====================================================================
 Step     67 Time=  2.75000E+00 Dt=  5.00000E-02 [y] snes_conv_reason:    3
  newton =   1 [      73] linear =   126 [      8711] cuts =  0 [   0]
  --> max chng: dpmx=   1.8523E+00 dtmpmx=   1.4105E-01

== TH FLOW =====================================================================
 Step     68 Time=  2.80000E+00 Dt=  5.00000E-02 [y] snes_conv_reason:    3
  newton =   1 [      74] linear =   122 [      8833] cuts =  0 [   0]
  --> max chng: dpmx=   1.8462E+00 dtmpmx=   1.3944E-01

== TH FLOW =====================================================================
 Step     69 Time=  2.85000E+00 Dt=  5.00000E-02 [y] snes_conv_reason:    3
  newton =   1 [      75] linear =   121 [      8954] cuts =  0 [   0]
  --> max chng: dpmx=   1.8391E+00 dtmpmx=   1.3760E-01

== TH FLOW =====================================================================
 Step     70 Time=  2.90000E+00 Dt=  5.00000E-02 [y] snes_conv_reason:    3
  newton =   1 [      76] linear =   121 [      9075] cuts =  0 [   0]
  --> max chng: dpmx=   1.8331E+00 dtmpmx=   1.3659E-01

== TH FLOW =====================================================================
 Step     71 Time=  2.95000E+00 Dt=  5.00000E-02 [y] snes_conv_reason:    3
  newton =   1 [      77] linear =   125 [      9200] cuts =  0 [   0]
  --> max chng: dpmx=   1.8256E+00 dtmpmx=   1.3483E-01

== TH FLOW =====================================================================
 Step     72 Time=  3.00000E+00 Dt=  5.00000E-02 [y] snes_conv_reason:    3
  newton =   1 [      78] linear =   120 [      9320] cuts =  0 [   0]
  --> max chng: dpmx=   1.8204E+00 dtmpmx=   1.3360E-01

== TH FLOW =====================================================================
 Step     73 Time=  3.05000E+00 Dt=  5.00000E-02 [y] snes_conv_reason:    3
  newton =   1 [      79] linear =   122 [      9442] cuts =  0 [   0]
  --> max chng: dpmx=   1.8136E+00 dtmpmx=   1.3240E-01

== TH FLOW =====================================================================
 Step     74 Time=  3.10000E+00 Dt=  5.00000E-02 [y] snes_conv_reason:    3
  newton =   1 [      80] linear =   121 [      9563] cuts =  0 [   0]
  --> max chng: dpmx=   1.8074E+00 dtmpmx=   1.3052E-01

== TH FLOW =====================================================================
 Step     75 Time=  3.15000E+00 Dt=  5.00000E-02 [y] snes_conv_reason:    3
  newton =   1 [      81] linear =   121 [      9684] cuts =  0 [   0]
  --> max chng: dpmx=   1.8010E+00 dtmpmx=   1.2980E-01

== TH FLOW =====================================================================
 Step     76 Time=  3.20000E+00 Dt=  5.00000E-02 [y] snes_conv_reason:    3
  newton =   1 [      82] linear =   121 [      9805] cuts =  0 [   0]
  --> max chng: dpmx=   1.7959E+00 dtmpmx=   1.2845E-01

== TH FLOW =====================================================================
 Step     77 Time=  3.25000E+00 Dt=  5.00000E-02 [y] snes_conv_reason:    3
  newton =   1 [      83] linear =   121 [      9926] cuts =  0 [   0]
  --> max chng: dpmx=   1.7886E+00 dtmpmx=   1.2707E-01

== TH FLOW =====================================================================
 Step     78 Time=  3.30000E+00 Dt=  5.00000E-02 [y] snes_conv_reason:    3
  newton =   1 [      84] linear =   120 [     10046] cuts =  0 [   0]
  --> max chng: dpmx=   1.7840E+00 dtmpmx=   1.2619E-01

== TH FLOW =====================================================================
 Step     79 Time=  3.35000E+00 Dt=  5.00000E-02 [y] snes_conv_reason:    3
  newton =   1 [      85] linear =   123 [     10169] cuts =  0 [   0]
  --> max chng: dpmx=   1.7773E+00 dtmpmx=   1.2471E-01

== TH FLOW =====================================================================
 Step     80 Time=  3.40000E+00 Dt=  5.00000E-02 [y] snes_conv_reason:    3
  newton =   1 [      86] linear =   118 [     10287] cuts =  0 [   0]
  --> max chng: dpmx=   1.7716E+00 dtmpmx=   1.2379E-01

== TH FLOW =====================================================================
 Step     81 Time=  3.45000E+00 Dt=  5.00000E-02 [y] snes_conv_reason:    3
  newton =   1 [      87] linear =   120 [     10407] cuts =  0 [   0]
  --> max chng: dpmx=   1.7653E+00 dtmpmx=   1.2276E-01

== TH FLOW =====================================================================
 Step     82 Time=  3.50000E+00 Dt=  5.00000E-02 [y] snes_conv_reason:    3
  newton =   1 [      88] linear =   123 [     10530] cuts =  0 [   0]
  --> max chng: dpmx=   1.7604E+00 dtmpmx=   1.2128E-01

== TH FLOW =====================================================================
 Step     83 Time=  3.55000E+00 Dt=  5.00000E-02 [y] snes_conv_reason:    3
  newton =   1 [      89] linear =   113 [     10643] cuts =  0 [   0]
  --> max chng: dpmx=   1.7551E+00 dtmpmx=   1.2065E-01

== TH FLOW =====================================================================
 Step     84 Time=  3.60000E+00 Dt=  5.00000E-02 [y] snes_conv_reason:    3
  newton =   1 [      90] linear =   122 [     10765] cuts =  0 [   0]
  --> max chng: dpmx=   1.7486E+00 dtmpmx=   1.1949E-01

== TH FLOW =====================================================================
 Step     85 Time=  3.65000E+00 Dt=  5.00000E-02 [y] snes_conv_reason:    3
  newton =   1 [      91] linear =   121 [     10886] cuts =  0 [   0]
  --> max chng: dpmx=   1.7437E+00 dtmpmx=   1.1843E-01

== TH FLOW =====================================================================
 Step     86 Time=  3.70000E+00 Dt=  5.00000E-02 [y] snes_conv_reason:    3
  newton =   1 [      92] linear =   122 [     11008] cuts =  0 [   0]
  --> max chng: dpmx=   1.7375E+00 dtmpmx=   1.1765E-01

== TH FLOW =====================================================================
 Step     87 Time=  3.75000E+00 Dt=  5.00000E-02 [y] snes_conv_reason:    3
  newton =   1 [      93] linear =   123 [     11131] cuts =  0 [   0]
  --> max chng: dpmx=   1.7329E+00 dtmpmx=   1.1637E-01

== TH FLOW =====================================================================
 Step     88 Time=  3.80000E+00 Dt=  5.00000E-02 [y] snes_conv_reason:    3
  newton =   1 [      94] linear =   121 [     11252] cuts =  0 [   0]
  --> max chng: dpmx=   1.7268E+00 dtmpmx=   1.1568E-01

== TH FLOW =====================================================================
 Step     89 Time=  3.85000E+00 Dt=  5.00000E-02 [y] snes_conv_reason:    3
  newton =   1 [      95] linear =   114 [     11366] cuts =  0 [   0]
  --> max chng: dpmx=   1.7218E+00 dtmpmx=   1.1476E-01

== TH FLOW =====================================================================
 Step     90 Time=  3.90000E+00 Dt=  5.00000E-02 [y] snes_conv_reason:    3
  newton =   1 [      96] linear =   118 [     11484] cuts =  0 [   0]
  --> max chng: dpmx=   1.7161E+00 dtmpmx=   1.1359E-01

== TH FLOW =====================================================================
 Step     91 Time=  3.95000E+00 Dt=  5.00000E-02 [y] snes_conv_reason:    3
  newton =   1 [      97] linear =   123 [     11607] cuts =  0 [   0]
  --> max chng: dpmx=   1.7114E+00 dtmpmx=   1.1302E-01

== TH FLOW =====================================================================
 Step     92 Time=  4.00000E+00 Dt=  5.00000E-02 [y] snes_conv_reason:    3
  newton =   1 [      98] linear =   126 [     11733] cuts =  0 [   0]
  --> max chng: dpmx=   1.7059E+00 dtmpmx=   1.1199E-01

== TH FLOW =====================================================================
 Step     93 Time=  4.05000E+00 Dt=  5.00000E-02 [y] snes_conv_reason:    3
  newton =   1 [      99] linear =   121 [     11854] cuts =  0 [   0]
  --> max chng: dpmx=   1.7008E+00 dtmpmx=   1.1116E-01

== TH FLOW =====================================================================
 Step     94 Time=  4.10000E+00 Dt=  5.00000E-02 [y] snes_conv_reason:    3
  newton =   1 [     100] linear =   124 [     11978] cuts =  0 [   0]
  --> max chng: dpmx=   1.6953E+00 dtmpmx=   1.1046E-01

== TH FLOW =====================================================================
 Step     95 Time=  4.15000E+00 Dt=  5.00000E-02 [y] snes_conv_reason:    3
  newton =   1 [     101] linear =   112 [     12090] cuts =  0 [   0]
  --> max chng: dpmx=   1.6905E+00 dtmpmx=   1.0933E-01

== TH FLOW =====================================================================
 Step     96 Time=  4.20000E+00 Dt=  5.00000E-02 [y] snes_conv_reason:    3
  newton =   1 [     102] linear =   121 [     12211] cuts =  0 [   0]
  --> max chng: dpmx=   1.6859E+00 dtmpmx=   1.0881E-01

== TH FLOW =====================================================================
 Step     97 Time=  4.25000E+00 Dt=  5.00000E-02 [y] snes_conv_reason:    3
  newton =   1 [     103] linear =   120 [     12331] cuts =  0 [   0]
  --> max chng: dpmx=   1.6801E+00 dtmpmx=   1.0798E-01

== TH FLOW =====================================================================
 Step     98 Time=  4.30000E+00 Dt=  5.00000E-02 [y] snes_conv_reason:    3
  newton =   1 [     104] linear =   119 [     12450] cuts =  0 [   0]
  --> max chng: dpmx=   1.6759E+00 dtmpmx=   1.0705E-01

== TH FLOW =====================================================================
 Step     99 Time=  4.35000E+00 Dt=  5.00000E-02 [y] snes_conv_reason:    3
  newton =   1 [     105] linear =   116 [     12566] cuts =  0 [   0]
  --> max chng: dpmx=   1.6695E+00 dtmpmx=   1.0652E-01

== TH FLOW =====================================================================
 Step    100 Time=  4.40000E+00 Dt=  5.00000E-02 [y] snes_conv_reason:    3
  newton =   1 [     106] linear =   122 [     12688] cuts =  0 [   0]
  --> max chng: dpmx=   1.6660E+00 dtmpmx=   1.0559E-01

== TH FLOW =====================================================================
 Step    101 Time=  4.45000E+00 Dt=  5.00000E-02 [y] snes_conv_reason:    3
  newton =   1 [     107] linear =   121 [     12809] cuts =  0 [   0]
  --> max chng: dpmx=   1.6602E+00 dtmpmx=   1.0494E-01

== TH FLOW =====================================================================
 Step    102 Time=  4.50000E+00 Dt=  5.00000E-02 [y] snes_conv_reason:    3
  newton =   1 [     108] linear =   123 [     12932] cuts =  0 [   0]
  --> max chng: dpmx=   1.6555E+00 dtmpmx=   1.0429E-01

== TH FLOW =====================================================================
 Step    103 Time=  4.55000E+00 Dt=  5.00000E-02 [y] snes_conv_reason:    3
  newton =   1 [     109] linear =   121 [     13053] cuts =  0 [   0]
  --> max chng: dpmx=   1.6505E+00 dtmpmx=   1.0328E-01

== TH FLOW =====================================================================
 Step    104 Time=  4.60000E+00 Dt=  5.00000E-02 [y] snes_conv_reason:    3
  newton =   1 [     110] linear =   116 [     13169] cuts =  0 [   0]
  --> max chng: dpmx=   1.6456E+00 dtmpmx=   1.0288E-01

== TH FLOW =====================================================================
 Step    105 Time=  4.65000E+00 Dt=  5.00000E-02 [y] snes_conv_reason:    3
  newton =   1 [     111] linear =   121 [     13290] cuts =  0 [   0]
  --> max chng: dpmx=   1.6410E+00 dtmpmx=   1.0213E-01

== TH FLOW =====================================================================
 Step    106 Time=  4.70000E+00 Dt=  5.00000E-02 [y] snes_conv_reason:    3
  newton =   1 [     112] linear =   122 [     13412] cuts =  0 [   0]
  --> max chng: dpmx=   1.6364E+00 dtmpmx=   1.0138E-01

== TH FLOW =====================================================================
 Step    107 Time=  4.75000E+00 Dt=  5.00000E-02 [y] snes_conv_reason:    3
  newton =   1 [     113] linear =   121 [     13533] cuts =  0 [   0]
  --> max chng: dpmx=   1.6310E+00 dtmpmx=   1.0088E-01

== TH FLOW =====================================================================
 Step    108 Time=  4.80000E+00 Dt=  5.00000E-02 [y] snes_conv_reason:    3
  newton =   1 [     114] linear =   121 [     13654] cuts =  0 [   0]
  --> max chng: dpmx=   1.6269E+00 dtmpmx=   1.0004E-01

== TH FLOW =====================================================================
 Step    109 Time=  4.85000E+00 Dt=  5.00000E-02 [y] snes_conv_reason:    3
  newton =   1 [     115] linear =   123 [     13777] cuts =  0 [   0]
  --> max chng: dpmx=   1.6220E+00 dtmpmx=   9.9525E-02

== TH FLOW =====================================================================
 Step    110 Time=  4.90000E+00 Dt=  5.00000E-02 [y] snes_conv_reason:    3
  newton =   1 [     116] linear =   122 [     13899] cuts =  0 [   0]
  --> max chng: dpmx=   1.6173E+00 dtmpmx=   9.8923E-02

== TH FLOW =====================================================================
 Step    111 Time=  4.95000E+00 Dt=  5.00000E-02 [y] snes_conv_reason:    3
  newton =   1 [     117] linear =   123 [     14022] cuts =  0 [   0]
  --> max chng: dpmx=   1.6124E+00 dtmpmx=   9.8085E-02

== TH FLOW =====================================================================
 Step    112 Time=  5.00000E+00 Dt=  5.00000E-02 [y] snes_conv_reason:    3
  newton =   1 [     118] linear =   119 [     14141] cuts =  0 [   0]
  --> max chng: dpmx=   1.6075E+00 dtmpmx=   9.7709E-02

== TH FLOW =====================================================================
 Step    113 Time=  5.05000E+00 Dt=  5.00000E-02 [y] snes_conv_reason:    3
  newton =   1 [     119] linear =   120 [     14261] cuts =  0 [   0]
  --> max chng: dpmx=   1.6036E+00 dtmpmx=   9.7016E-02

== TH FLOW =====================================================================
 Step    114 Time=  5.10000E+00 Dt=  5.00000E-02 [y] snes_conv_reason:    3
  newton =   1 [     120] linear =   122 [     14383] cuts =  0 [   0]
  --> max chng: dpmx=   1.5982E+00 dtmpmx=   9.6405E-02

== TH FLOW =====================================================================
 Step    115 Time=  5.15000E+00 Dt=  5.00000E-02 [y] snes_conv_reason:    3
  newton =   1 [     121] linear =   121 [     14504] cuts =  0 [   0]
  --> max chng: dpmx=   1.5940E+00 dtmpmx=   9.5930E-02

== TH FLOW =====================================================================
 Step    116 Time=  5.20000E+00 Dt=  5.00000E-02 [y] snes_conv_reason:    3
  newton =   1 [     122] linear =   121 [     14625] cuts =  0 [   0]
  --> max chng: dpmx=   1.5887E+00 dtmpmx=   9.5155E-02

== TH FLOW =====================================================================
 Step    117 Time=  5.25000E+00 Dt=  5.00000E-02 [y] snes_conv_reason:    3
  newton =   1 [     123] linear =   121 [     14746] cuts =  0 [   0]
  --> max chng: dpmx=   1.5850E+00 dtmpmx=   9.4753E-02

== TH FLOW =====================================================================
 Step    118 Time=  5.30000E+00 Dt=  5.00000E-02 [y] snes_conv_reason:    3
  newton =   1 [     124] linear =   115 [     14861] cuts =  0 [   0]
  --> max chng: dpmx=   1.5800E+00 dtmpmx=   9.4188E-02

== TH FLOW =====================================================================
 Step    119 Time=  5.35000E+00 Dt=  5.00000E-02 [y] snes_conv_reason:    3
  newton =   1 [     125] linear =   108 [     14969] cuts =  0 [   0]
  --> max chng: dpmx=   1.5756E+00 dtmpmx=   9.3496E-02

== TH FLOW =====================================================================
 Step    120 Time=  5.40000E+00 Dt=  5.00000E-02 [y] snes_conv_reason:    3
  newton =   1 [     126] linear =   122 [     15091] cuts =  0 [   0]
  --> max chng: dpmx=   1.5713E+00 dtmpmx=   9.3130E-02

== TH FLOW =====================================================================
 Step    121 Time=  5.45000E+00 Dt=  5.00000E-02 [y] snes_conv_reason:    3
  newton =   1 [     127] linear =   120 [     15211] cuts =  0 [   0]
  --> max chng: dpmx=   1.5666E+00 dtmpmx=   9.2484E-02

== TH FLOW =====================================================================
 Step    122 Time=  5.50000E+00 Dt=  5.00000E-02 [y] snes_conv_reason:    3
  newton =   1 [     128] linear =   120 [     15331] cuts =  0 [   0]
  --> max chng: dpmx=   1.5619E+00 dtmpmx=   9.1990E-02

== TH FLOW =====================================================================
 Step    123 Time=  5.55000E+00 Dt=  5.00000E-02 [y] snes_conv_reason:    3
  newton =   1 [     129] linear =   119 [     15450] cuts =  0 [   0]
  --> max chng: dpmx=   1.5580E+00 dtmpmx=   9.1535E-02

== TH FLOW =====================================================================
 Step    124 Time=  5.60000E+00 Dt=  5.00000E-02 [y] snes_conv_reason:    3
  newton =   1 [     130] linear =   114 [     15564] cuts =  0 [   0]
  --> max chng: dpmx=   1.5534E+00 dtmpmx=   9.0815E-02

== TH FLOW =====================================================================
 Step    125 Time=  5.65000E+00 Dt=  5.00000E-02 [y] snes_conv_reason:    3
  newton =   1 [     131] linear =   123 [     15687] cuts =  0 [   0]
  --> max chng: dpmx=   1.5481E+00 dtmpmx=   9.0504E-02

== TH FLOW =====================================================================
 Step    126 Time=  5.70000E+00 Dt=  5.00000E-02 [y] snes_conv_reason:    3
  newton =   1 [     132] linear =   121 [     15808] cuts =  0 [   0]
  --> max chng: dpmx=   1.5446E+00 dtmpmx=   8.9970E-02

== TH FLOW =====================================================================
 Step    127 Time=  5.75000E+00 Dt=  5.00000E-02 [y] snes_conv_reason:    3
  newton =   1 [     133] linear =   115 [     15923] cuts =  0 [   0]
  --> max chng: dpmx=   1.5395E+00 dtmpmx=   8.9398E-02

== TH FLOW =====================================================================
 Step    128 Time=  5.80000E+00 Dt=  5.00000E-02 [y] snes_conv_reason:    3
  newton =   1 [     134] linear =   120 [     16043] cuts =  0 [   0]
  --> max chng: dpmx=   1.5351E+00 dtmpmx=   8.9040E-02

== TH FLOW =====================================================================
 Step    129 Time=  5.85000E+00 Dt=  5.00000E-02 [y] snes_conv_reason:    3
  newton =   1 [     135] linear =   113 [     16156] cuts =  0 [   0]
  --> max chng: dpmx=   1.5312E+00 dtmpmx=   8.8432E-02

== TH FLOW =====================================================================
 Step    130 Time=  5.90000E+00 Dt=  5.00000E-02 [y] snes_conv_reason:    3
  newton =   1 [     136] linear =   120 [     16276] cuts =  0 [   0]
  --> max chng: dpmx=   1.5261E+00 dtmpmx=   8.8034E-02

== TH FLOW =====================================================================
 Step    131 Time=  5.95000E+00 Dt=  5.00000E-02 [y] snes_conv_reason:    3
  newton =   1 [     137] linear =   119 [     16395] cuts =  0 [   0]
  --> max chng: dpmx=   1.5229E+00 dtmpmx=   8.7598E-02

== TH FLOW =====================================================================
 Step    132 Time=  6.00000E+00 Dt=  5.00000E-02 [y] snes_conv_reason:    3
  newton =   1 [     138] linear =   122 [     16517] cuts =  0 [   0]
  --> max chng: dpmx=   1.5174E+00 dtmpmx=   8.6960E-02

== TH FLOW =====================================================================
 Step    133 Time=  6.05000E+00 Dt=  5.00000E-02 [y] snes_conv_reason:    3
  newton =   1 [     139] linear =   118 [     16635] cuts =  0 [   0]
  --> max chng: dpmx=   1.5138E+00 dtmpmx=   8.6687E-02

== TH FLOW =====================================================================
 Step    134 Time=  6.10000E+00 Dt=  5.00000E-02 [y] snes_conv_reason:    3
  newton =   1 [     140] linear =   118 [     16753] cuts =  0 [   0]
  --> max chng: dpmx=   1.5092E+00 dtmpmx=   8.6178E-02

== TH FLOW =====================================================================
 Step    135 Time=  6.15000E+00 Dt=  5.00000E-02 [y] snes_conv_reason:    3
  newton =   1 [     141] linear =   120 [     16873] cuts =  0 [   0]
  --> max chng: dpmx=   1.5041E+00 dtmpmx=   8.5706E-02

== TH FLOW =====================================================================
 Step    136 Time=  6.20000E+00 Dt=  5.00000E-02 [y] snes_conv_reason:    3
  newton =   1 [     142] linear =   118 [     16991] cuts =  0 [   0]
  --> max chng: dpmx=   1.5005E+00 dtmpmx=   8.5355E-02

== TH FLOW =====================================================================
 Step    137 Time=  6.25000E+00 Dt=  5.00000E-02 [y] snes_conv_reason:    3
  newton =   1 [     143] linear =   123 [     17114] cuts =  0 [   0]
  --> max chng: dpmx=   1.4964E+00 dtmpmx=   8.4780E-02

== TH FLOW =====================================================================
 Step    138 Time=  6.30000E+00 Dt=  5.00000E-02 [y] snes_conv_reason:    3
  newton =   1 [     144] linear =   121 [     17235] cuts =  0 [   0]
  --> max chng: dpmx=   1.4917E+00 dtmpmx=   8.4463E-02

== TH FLOW =====================================================================
 Step    139 Time=  6.35000E+00 Dt=  5.00000E-02 [y] snes_conv_reason:    3
  newton =   1 [     145] linear =   115 [     17350] cuts =  0 [   0]
  --> max chng: dpmx=   1.4877E+00 dtmpmx=   8.4041E-02

== TH FLOW =====================================================================
 Step    140 Time=  6.40000E+00 Dt=  5.00000E-02 [y] snes_conv_reason:    3
  newton =   1 [     146] linear =   121 [     17471] cuts =  0 [   0]
  --> max chng: dpmx=   1.4830E+00 dtmpmx=   8.3506E-02

== TH FLOW =====================================================================
 Step    141 Time=  6.45000E+00 Dt=  5.00000E-02 [y] snes_conv_reason:    3
  newton =   1 [     147] linear =   121 [     17592] cuts =  0 [   0]
  --> max chng: dpmx=   1.4794E+00 dtmpmx=   8.3231E-02

== TH FLOW =====================================================================
 Step    142 Time=  6.50000E+00 Dt=  5.00000E-02 [y] snes_conv_reason:    3
  newton =   1 [     148] linear =   115 [     17707] cuts =  0 [   0]
  --> max chng: dpmx=   1.4743E+00 dtmpmx=   8.2745E-02

== TH FLOW =====================================================================
 Step    143 Time=  6.55000E+00 Dt=  5.00000E-02 [y] snes_conv_reason:    3
  newton =   1 [     149] linear =   121 [     17828] cuts =  0 [   0]
  --> max chng: dpmx=   1.4704E+00 dtmpmx=   8.2356E-02

== TH FLOW =====================================================================
 Step    144 Time=  6.60000E+00 Dt=  5.00000E-02 [y] snes_conv_reason:    3
  newton =   1 [     150] linear =   122 [     17950] cuts =  0 [   0]
  --> max chng: dpmx=   1.4668E+00 dtmpmx=   8.2013E-02

== TH FLOW =====================================================================
 Step    145 Time=  6.65000E+00 Dt=  5.00000E-02 [y] snes_conv_reason:    3
  newton =   1 [     151] linear =   121 [     18071] cuts =  0 [   0]
  --> max chng: dpmx=   1.4619E+00 dtmpmx=   8.1466E-02

== TH FLOW =====================================================================
 Step    146 Time=  6.70000E+00 Dt=  5.00000E-02 [y] snes_conv_reason:    3
  newton =   1 [     152] linear =   121 [     18192] cuts =  0 [   0]
  --> max chng: dpmx=   1.4578E+00 dtmpmx=   8.1215E-02

== TH FLOW =====================================================================
 Step    147 Time=  6.75000E+00 Dt=  5.00000E-02 [y] snes_conv_reason:    3
  newton =   1 [     153] linear =   114 [     18306] cuts =  0 [   0]
  --> max chng: dpmx=   1.4529E+00 dtmpmx=   8.0807E-02

== TH FLOW =====================================================================
 Step    148 Time=  6.80000E+00 Dt=  5.00000E-02 [y] snes_conv_reason:    3
  newton =   1 [     154] linear =   121 [     18427] cuts =  0 [   0]
  --> max chng: dpmx=   1.4494E+00 dtmpmx=   8.0358E-02

== TH FLOW =====================================================================
 Step    149 Time=  6.85000E+00 Dt=  5.00000E-02 [y] snes_conv_reason:    3
  newton =   1 [     155] linear =   121 [     18548] cuts =  0 [   0]
  --> max chng: dpmx=   1.4455E+00 dtmpmx=   8.0083E-02

== TH FLOW =====================================================================
 Step    150 Time=  6.90000E+00 Dt=  5.00000E-02 [y] snes_conv_reason:    3
  newton =   1 [     156] linear =   120 [     18668] cuts =  0 [   0]
  --> max chng: dpmx=   1.4412E+00 dtmpmx=   7.9616E-02

== TH FLOW =====================================================================
 Step    151 Time=  6.95000E+00 Dt=  5.00000E-02 [y] snes_conv_reason:    3
  newton =   1 [     157] linear =   120 [     18788] cuts =  0 [   0]
  --> max chng: dpmx=   1.4364E+00 dtmpmx=   7.9299E-02

== TH FLOW =====================================================================
 Step    152 Time=  7.00000E+00 Dt=  5.00000E-02 [y] snes_conv_reason:    3
  newton =   1 [     158] linear =   112 [     18900] cuts =  0 [   0]
  --> max chng: dpmx=   1.4327E+00 dtmpmx=   7.8961E-02

== TH FLOW =====================================================================
 Step    153 Time=  7.05000E+00 Dt=  5.00000E-02 [y] snes_conv_reason:    3
  newton =   1 [     159] linear =   120 [     19020] cuts =  0 [   0]
  --> max chng: dpmx=   1.4286E+00 dtmpmx=   7.8459E-02

== TH FLOW =====================================================================
 Step    154 Time=  7.10000E+00 Dt=  5.00000E-02 [y] snes_conv_reason:    3
  newton =   1 [     160] linear =   120 [     19140] cuts =  0 [   0]
  --> max chng: dpmx=   1.4241E+00 dtmpmx=   7.8246E-02

== TH FLOW =====================================================================
 Step    155 Time=  7.15000E+00 Dt=  5.00000E-02 [y] snes_conv_reason:    3
  newton =   1 [     161] linear =   121 [     19261] cuts =  0 [   0]
  --> max chng: dpmx=   1.4200E+00 dtmpmx=   7.7849E-02

== TH FLOW =====================================================================
 Step    156 Time=  7.20000E+00 Dt=  5.00000E-02 [y] snes_conv_reason:    3
  newton =   1 [     162] linear =   125 [     19386] cuts =  0 [   0]
  --> max chng: dpmx=   1.4159E+00 dtmpmx=   7.7474E-02

== TH FLOW =====================================================================
 Step    157 Time=  7.25000E+00 Dt=  5.00000E-02 [y] snes_conv_reason:    3
  newton =   1 [     163] linear =   123 [     19509] cuts =  0 [   0]
  --> max chng: dpmx=   1.4117E+00 dtmpmx=   7.7199E-02

== TH FLOW =====================================================================
 Step    158 Time=  7.30000E+00 Dt=  5.00000E-02 [y] snes_conv_reason:    3
  newton =   1 [     164] linear =   121 [     19630] cuts =  0 [   0]
  --> max chng: dpmx=   1.4078E+00 dtmpmx=   7.6749E-02

== TH FLOW =====================================================================
 Step    159 Time=  7.35000E+00 Dt=  5.00000E-02 [y] snes_conv_reason:    3
  newton =   1 [     165] linear =   124 [     19754] cuts =  0 [   0]
  --> max chng: dpmx=   1.4035E+00 dtmpmx=   7.6493E-02

== TH FLOW =====================================================================
 Step    160 Time=  7.40000E+00 Dt=  5.00000E-02 [y] snes_conv_reason:    3
  newton =   1 [     166] linear =   123 [     19877] cuts =  0 [   0]
  --> max chng: dpmx=   1.3994E+00 dtmpmx=   7.6160E-02

== TH FLOW =====================================================================
 Step    161 Time=  7.45000E+00 Dt=  5.00000E-02 [y] snes_conv_reason:    3
  newton =   1 [     167] linear =   114 [     19991] cuts =  0 [   0]
  --> max chng: dpmx=   1.3955E+00 dtmpmx=   7.5734E-02

== TH FLOW =====================================================================
 Step    162 Time=  7.50000E+00 Dt=  5.00000E-02 [y] snes_conv_reason:    3
  newton =   1 [     168] linear =   122 [     20113] cuts =  0 [   0]
  --> max chng: dpmx=   1.3911E+00 dtmpmx=   7.5515E-02

== TH FLOW =====================================================================
 Step    163 Time=  7.55000E+00 Dt=  5.00000E-02 [y] snes_conv_reason:    3
  newton =   1 [     169] linear =   121 [     20234] cuts =  0 [   0]
  --> max chng: dpmx=   1.3866E+00 dtmpmx=   7.5130E-02

== TH FLOW =====================================================================
 Step    164 Time=  7.60000E+00 Dt=  5.00000E-02 [y] snes_conv_reason:    3
  newton =   1 [     170] linear =   121 [     20355] cuts =  0 [   0]
  --> max chng: dpmx=   1.3832E+00 dtmpmx=   7.4818E-02

== TH FLOW =====================================================================
 Step    165 Time=  7.65000E+00 Dt=  5.00000E-02 [y] snes_conv_reason:    3
  newton =   1 [     171] linear =   114 [     20469] cuts =  0 [   0]
  --> max chng: dpmx=   1.3790E+00 dtmpmx=   7.4543E-02

== TH FLOW =====================================================================
 Step    166 Time=  7.70000E+00 Dt=  5.00000E-02 [y] snes_conv_reason:    3
  newton =   1 [     172] linear =   121 [     20590] cuts =  0 [   0]
  --> max chng: dpmx=   1.3747E+00 dtmpmx=   7.4108E-02

== TH FLOW =====================================================================
 Step    167 Time=  7.75000E+00 Dt=  5.00000E-02 [y] snes_conv_reason:    3
  newton =   1 [     173] linear =   119 [     20709] cuts =  0 [   0]
  --> max chng: dpmx=   1.3709E+00 dtmpmx=   7.3904E-02

== TH FLOW =====================================================================
 Step    168 Time=  7.80000E+00 Dt=  5.00000E-02 [y] snes_conv_reason:    3
  newton =   1 [     174] linear =   118 [     20827] cuts =  0 [   0]
  --> max chng: dpmx=   1.3663E+00 dtmpmx=   7.3577E-02

== TH FLOW =====================================================================
 Step    169 Time=  7.85000E+00 Dt=  5.00000E-02 [y] snes_conv_reason:    3
  newton =   1 [     175] linear =   118 [     20945] cuts =  0 [   0]
  --> max chng: dpmx=   1.3623E+00 dtmpmx=   7.3216E-02

== TH FLOW =====================================================================
 Step    170 Time=  7.90000E+00 Dt=  5.00000E-02 [y] snes_conv_reason:    3
  newton =   1 [     176] linear =   121 [     21066] cuts =  0 [   0]
  --> max chng: dpmx=   1.3590E+00 dtmpmx=   7.2994E-02

== TH FLOW =====================================================================
 Step    171 Time=  7.95000E+00 Dt=  5.00000E-02 [y] snes_conv_reason:    3
  newton =   1 [     177] linear =   119 [     21185] cuts =  0 [   0]
  --> max chng: dpmx=   1.3542E+00 dtmpmx=   7.2618E-02

== TH FLOW =====================================================================
 Step    172 Time=  8.00000E+00 Dt=  5.00000E-02 [y] snes_conv_reason:    3
  newton =   1 [     178] linear =   119 [     21304] cuts =  0 [   0]
  --> max chng: dpmx=   1.3502E+00 dtmpmx=   7.2361E-02

== TH FLOW =====================================================================
 Step    173 Time=  8.05000E+00 Dt=  5.00000E-02 [y] snes_conv_reason:    3
  newton =   1 [     179] linear =   120 [     21424] cuts =  0 [   0]
  --> max chng: dpmx=   1.3463E+00 dtmpmx=   7.2087E-02

== TH FLOW =====================================================================
 Step    174 Time=  8.10000E+00 Dt=  5.00000E-02 [y] snes_conv_reason:    3
  newton =   1 [     180] linear =   111 [     21535] cuts =  0 [   0]
  --> max chng: dpmx=   1.3423E+00 dtmpmx=   7.1683E-02

== TH FLOW =====================================================================
 Step    175 Time=  8.15000E+00 Dt=  5.00000E-02 [y] snes_conv_reason:    3
  newton =   1 [     181] linear =   120 [     21655] cuts =  0 [   0]
  --> max chng: dpmx=   1.3381E+00 dtmpmx=   7.1507E-02

== TH FLOW =====================================================================
 Step    176 Time=  8.20000E+00 Dt=  5.00000E-02 [y] snes_conv_reason:    3
  newton =   1 [     182] linear =   121 [     21776] cuts =  0 [   0]
  --> max chng: dpmx=   1.3345E+00 dtmpmx=   7.1185E-02

== TH FLOW =====================================================================
 Step    177 Time=  8.25000E+00 Dt=  5.00000E-02 [y] snes_conv_reason:    3
  newton =   1 [     183] linear =   120 [     21896] cuts =  0 [   0]
  --> max chng: dpmx=   1.3305E+00 dtmpmx=   7.0881E-02

== TH FLOW =====================================================================
 Step    178 Time=  8.30000E+00 Dt=  5.00000E-02 [y] snes_conv_reason:    3
  newton =   1 [     184] linear =   119 [     22015] cuts =  0 [   0]
  --> max chng: dpmx=   1.3261E+00 dtmpmx=   7.0656E-02

== TH FLOW =====================================================================
 Step    179 Time=  8.35000E+00 Dt=  5.00000E-02 [y] snes_conv_reason:    3
  newton =   1 [     185] linear =   115 [     22130] cuts =  0 [   0]
  --> max chng: dpmx=   1.3215E+00 dtmpmx=   7.0288E-02

== TH FLOW =====================================================================
 Step    180 Time=  8.40000E+00 Dt=  5.00000E-02 [y] snes_conv_reason:    3
  newton =   1 [     186] linear =   123 [     22253] cuts =  0 [   0]
  --> max chng: dpmx=   1.3184E+00 dtmpmx=   7.0080E-02

== TH FLOW =====================================================================
 Step    181 Time=  8.45000E+00 Dt=  5.00000E-02 [y] snes_conv_reason:    3
  newton =   1 [     187] linear =   115 [     22368] cuts =  0 [   0]
  --> max chng: dpmx=   1.3138E+00 dtmpmx=   6.9807E-02

== TH FLOW =====================================================================
 Step    182 Time=  8.50000E+00 Dt=  5.00000E-02 [y] snes_conv_reason:    3
  newton =   1 [     188] linear =   119 [     22487] cuts =  0 [   0]
  --> max chng: dpmx=   1.3101E+00 dtmpmx=   6.9461E-02

== TH FLOW =====================================================================
 Step    183 Time=  8.55000E+00 Dt=  5.00000E-02 [y] snes_conv_reason:    3
  newton =   1 [     189] linear =   117 [     22604] cuts =  0 [   0]
  --> max chng: dpmx=   1.3064E+00 dtmpmx=   6.9279E-02

== TH FLOW =====================================================================
 Step    184 Time=  8.60000E+00 Dt=  5.00000E-02 [y] snes_conv_reason:    3
  newton =   1 [     190] linear =   120 [     22724] cuts =  0 [   0]
  --> max chng: dpmx=   1.3021E+00 dtmpmx=   6.8961E-02

== TH FLOW =====================================================================
 Step    185 Time=  8.65000E+00 Dt=  5.00000E-02 [y] snes_conv_reason:    3
  newton =   1 [     191] linear =   121 [     22845] cuts =  0 [   0]
  --> max chng: dpmx=   1.2981E+00 dtmpmx=   6.8708E-02

== TH FLOW =====================================================================
 Step    186 Time=  8.70000E+00 Dt=  5.00000E-02 [y] snes_conv_reason:    3
  newton =   1 [     192] linear =   118 [     22963] cuts =  0 [   0]
  --> max chng: dpmx=   1.2938E+00 dtmpmx=   6.8479E-02

== TH FLOW =====================================================================
 Step    187 Time=  8.75000E+00 Dt=  5.00000E-02 [y] snes_conv_reason:    3
  newton =   1 [     193] linear =   116 [     23079] cuts =  0 [   0]
  --> max chng: dpmx=   1.2901E+00 dtmpmx=   6.8120E-02

== TH FLOW =====================================================================
 Step    188 Time=  8.80000E+00 Dt=  5.00000E-02 [y] snes_conv_reason:    3
  newton =   1 [     194] linear =   121 [     23200] cuts =  0 [   0]
  --> max chng: dpmx=   1.2862E+00 dtmpmx=   6.7954E-02

== TH FLOW =====================================================================
 Step    189 Time=  8.85000E+00 Dt=  5.00000E-02 [y] snes_conv_reason:    3
  newton =   1 [     195] linear =   120 [     23320] cuts =  0 [   0]
  --> max chng: dpmx=   1.2820E+00 dtmpmx=   6.7682E-02

== TH FLOW =====================================================================
 Step    190 Time=  8.90000E+00 Dt=  5.00000E-02 [y] snes_conv_reason:    3
  newton =   1 [     196] linear =   119 [     23439] cuts =  0 [   0]
  --> max chng: dpmx=   1.2779E+00 dtmpmx=   6.7387E-02

== TH FLOW =====================================================================
 Step    191 Time=  8.95000E+00 Dt=  5.00000E-02 [y] snes_conv_reason:    3
  newton =   1 [     197] linear =   121 [     23560] cuts =  0 [   0]
  --> max chng: dpmx=   1.2745E+00 dtmpmx=   6.7200E-02

== TH FLOW =====================================================================
 Step    192 Time=  9.00000E+00 Dt=  5.00000E-02 [y] snes_conv_reason:    3
  newton =   1 [     198] linear =   121 [     23681] cuts =  0 [   0]
  --> max chng: dpmx=   1.2701E+00 dtmpmx=   6.6887E-02

== TH FLOW =====================================================================
 Step    193 Time=  9.05000E+00 Dt=  5.00000E-02 [y] snes_conv_reason:    3
  newton =   1 [     199] linear =   119 [     23800] cuts =  0 [   0]
  --> max chng: dpmx=   1.2665E+00 dtmpmx=   6.6677E-02

== TH FLOW =====================================================================
 Step    194 Time=  9.10000E+00 Dt=  5.00000E-02 [y] snes_conv_reason:    3
  newton =   1 [     200] linear =   123 [     23923] cuts =  0 [   0]
  --> max chng: dpmx=   1.2621E+00 dtmpmx=   6.6447E-02

== TH FLOW =====================================================================
 Step    195 Time=  9.15000E+00 Dt=  5.00000E-02 [y] snes_conv_reason:    3
  newton =   1 [     201] linear =   121 [     24044] cuts =  0 [   0]
  --> max chng: dpmx=   1.2582E+00 dtmpmx=   6.6116E-02

== TH FLOW =====================================================================
 Step    196 Time=  9.20000E+00 Dt=  5.00000E-02 [y] snes_conv_reason:    3
  newton =   1 [     202] linear =   122 [     24166] cuts =  0 [   0]
  --> max chng: dpmx=   1.2547E+00 dtmpmx=   6.5966E-02

== TH FLOW =====================================================================
 Step    197 Time=  9.25000E+00 Dt=  5.00000E-02 [y] snes_conv_reason:    3
  newton =   1 [     203] linear =   122 [     24288] cuts =  0 [   0]
  --> max chng: dpmx=   1.2505E+00 dtmpmx=   6.5695E-02

== TH FLOW =====================================================================
 Step    198 Time=  9.30000E+00 Dt=  5.00000E-02 [y] snes_conv_reason:    3
  newton =   1 [     204] linear =   124 [     24412] cuts =  0 [   0]
  --> max chng: dpmx=   1.2462E+00 dtmpmx=   6.5447E-02

== TH FLOW =====================================================================
 Step    199 Time=  9.35000E+00 Dt=  5.00000E-02 [y] snes_conv_reason:    3
  newton =   1 [     205] linear =   124 [     24536] cuts =  0 [   0]
  --> max chng: dpmx=   1.2425E+00 dtmpmx=   6.5255E-02

== TH FLOW =====================================================================
 Step    200 Time=  9.40000E+00 Dt=  5.00000E-02 [y] snes_conv_reason:    3
  newton =   1 [     206] linear =   119 [     24655] cuts =  0 [   0]
  --> max chng: dpmx=   1.2385E+00 dtmpmx=   6.4945E-02

== TH FLOW =====================================================================
 Step    201 Time=  9.45000E+00 Dt=  5.00000E-02 [y] snes_conv_reason:    3
  newton =   1 [     207] linear =   121 [     24776] cuts =  0 [   0]
  --> max chng: dpmx=   1.2345E+00 dtmpmx=   6.4775E-02

== TH FLOW =====================================================================
 Step    202 Time=  9.50000E+00 Dt=  5.00000E-02 [y] snes_conv_reason:    3
  newton =   1 [     208] linear =   122 [     24898] cuts =  0 [   0]
  --> max chng: dpmx=   1.2307E+00 dtmpmx=   6.4544E-02

== TH FLOW =====================================================================
 Step    203 Time=  9.55000E+00 Dt=  5.00000E-02 [y] snes_conv_reason:    3
  newton =   1 [     209] linear =   118 [     25016] cuts =  0 [   0]
  --> max chng: dpmx=   1.2270E+00 dtmpmx=   6.4260E-02

== TH FLOW =====================================================================
 Step    204 Time=  9.60000E+00 Dt=  5.00000E-02 [y] snes_conv_reason:    3
  newton =   1 [     210] linear =   117 [     25133] cuts =  0 [   0]
  --> max chng: dpmx=   1.2224E+00 dtmpmx=   6.4103E-02

== TH FLOW =====================================================================
 Step    205 Time=  9.65000E+00 Dt=  5.00000E-02 [y] snes_conv_reason:    3
  newton =   1 [     211] linear =   123 [     25256] cuts =  0 [   0]
  --> max chng: dpmx=   1.2192E+00 dtmpmx=   6.3833E-02

== TH FLOW =====================================================================
 Step    206 Time=  9.70000E+00 Dt=  5.00000E-02 [y] snes_conv_reason:    3
  newton =   1 [     212] linear =   118 [     25374] cuts =  0 [   0]
  --> max chng: dpmx=   1.2150E+00 dtmpmx=   6.3625E-02

== TH FLOW =====================================================================
 Step    207 Time=  9.75000E+00 Dt=  5.00000E-02 [y] snes_conv_reason:    3
  newton =   1 [     213] linear =   117 [     25491] cuts =  0 [   0]
  --> max chng: dpmx=   1.2110E+00 dtmpmx=   6.3429E-02

== TH FLOW =====================================================================
 Step    208 Time=  9.80000E+00 Dt=  5.00000E-02 [y] snes_conv_reason:    3
  newton =   1 [     214] linear =   121 [     25612] cuts =  0 [   0]
  --> max chng: dpmx=   1.2069E+00 dtmpmx=   6.3124E-02

== TH FLOW =====================================================================
 Step    209 Time=  9.85000E+00 Dt=  5.00000E-02 [y] snes_conv_reason:    3
  newton =   1 [     215] linear =   123 [     25735] cuts =  0 [   0]
  --> max chng: dpmx=   1.2032E+00 dtmpmx=   6.2989E-02

== TH FLOW =====================================================================
 Step    210 Time=  9.90000E+00 Dt=  5.00000E-02 [y] snes_conv_reason:    3
  newton =   1 [     216] linear =   120 [     25855] cuts =  0 [   0]
  --> max chng: dpmx=   1.1992E+00 dtmpmx=   6.2756E-02

== TH FLOW =====================================================================
 Step    211 Time=  9.95000E+00 Dt=  5.00000E-02 [y] snes_conv_reason:    3
  newton =   1 [     217] linear =   123 [     25978] cuts =  0 [   0]
  --> max chng: dpmx=   1.1954E+00 dtmpmx=   6.2514E-02

== TH FLOW =====================================================================
 Step    212 Time=  1.00000E+01 Dt=  5.00000E-02 [y] snes_conv_reason:    3
  newton =   1 [     218] linear =   124 [     26102] cuts =  0 [   0]
  --> max chng: dpmx=   1.1915E+00 dtmpmx=   6.2351E-02

== TH FLOW =====================================================================
 Step    213 Time=  1.00500E+01 Dt=  5.00000E-02 [y] snes_conv_reason:    3
  newton =   1 [     219] linear =   121 [     26223] cuts =  0 [   0]
  --> max chng: dpmx=   1.1875E+00 dtmpmx=   6.2082E-02

== TH FLOW =====================================================================
 Step    214 Time=  1.01000E+01 Dt=  5.00000E-02 [y] snes_conv_reason:    3
  newton =   1 [     220] linear =   125 [     26348] cuts =  0 [   0]
  --> max chng: dpmx=   1.1836E+00 dtmpmx=   6.1911E-02

== TH FLOW =====================================================================
 Step    215 Time=  1.01500E+01 Dt=  5.00000E-02 [y] snes_conv_reason:    3
  newton =   1 [     221] linear =   126 [     26474] cuts =  0 [   0]
  --> max chng: dpmx=   1.1798E+00 dtmpmx=   6.1712E-02

== TH FLOW =====================================================================
 Step    216 Time=  1.02000E+01 Dt=  5.00000E-02 [y] snes_conv_reason:    3
  newton =   1 [     222] linear =   123 [     26597] cuts =  0 [   0]
  --> max chng: dpmx=   1.1756E+00 dtmpmx=   6.1439E-02

== TH FLOW =====================================================================
 Step    217 Time=  1.02500E+01 Dt=  5.00000E-02 [y] snes_conv_reason:    3
  newton =   1 [     223] linear =   121 [     26718] cuts =  0 [   0]
  --> max chng: dpmx=   1.1722E+00 dtmpmx=   6.1306E-02

== TH FLOW =====================================================================
 Step    218 Time=  1.03000E+01 Dt=  5.00000E-02 [y] snes_conv_reason:    3
  newton =   1 [     224] linear =   114 [     26832] cuts =  0 [   0]
  --> max chng: dpmx=   1.1678E+00 dtmpmx=   6.1072E-02

== TH FLOW =====================================================================
 Step    219 Time=  1.03500E+01 Dt=  5.00000E-02 [y] snes_conv_reason:    3
  newton =   1 [     225] linear =   121 [     26953] cuts =  0 [   0]
  --> max chng: dpmx=   1.1642E+00 dtmpmx=   6.0868E-02

== TH FLOW =====================================================================
 Step    220 Time=  1.04000E+01 Dt=  5.00000E-02 [y] snes_conv_reason:    3
  newton =   1 [     226] linear =   120 [     27073] cuts =  0 [   0]
  --> max chng: dpmx=   1.1603E+00 dtmpmx=   6.0700E-02

== TH FLOW =====================================================================
 Step    221 Time=  1.04500E+01 Dt=  5.00000E-02 [y] snes_conv_reason:    3
  newton =   1 [     227] linear =   119 [     27192] cuts =  0 [   0]
  --> max chng: dpmx=   1.1566E+00 dtmpmx=   6.0433E-02

== TH FLOW =====================================================================
 Step    222 Time=  1.05000E+01 Dt=  5.00000E-02 [y] snes_conv_reason:    3
  newton =   1 [     228] linear =   117 [     27309] cuts =  0 [   0]
  --> max chng: dpmx=   1.1521E+00 dtmpmx=   6.0294E-02

== TH FLOW =====================================================================
 Step    223 Time=  1.05500E+01 Dt=  5.00000E-02 [y] snes_conv_reason:    3
  newton =   1 [     229] linear =   119 [     27428] cuts =  0 [   0]
  --> max chng: dpmx=   1.1484E+00 dtmpmx=   6.0092E-02

== TH FLOW =====================================================================
 Step    224 Time=  1.06000E+01 Dt=  5.00000E-02 [y] snes_conv_reason:    3
  newton =   1 [     230] linear =   112 [     27540] cuts =  0 [   0]
  --> max chng: dpmx=   1.1450E+00 dtmpmx=   5.9858E-02

== TH FLOW =====================================================================
 Step    225 Time=  1.06500E+01 Dt=  5.00000E-02 [y] snes_conv_reason:    3
  newton =   1 [     231] linear =   116 [     27656] cuts =  0 [   0]
  --> max chng: dpmx=   1.1401E+00 dtmpmx=   5.9719E-02

== TH FLOW =====================================================================
 Step    226 Time=  1.07000E+01 Dt=  5.00000E-02 [y] snes_conv_reason:    3
  newton =   1 [     232] linear =   118 [     27774] cuts =  0 [   0]
  --> max chng: dpmx=   1.1373E+00 dtmpmx=   5.9484E-02

== TH FLOW =====================================================================
 Step    227 Time=  1.07500E+01 Dt=  5.00000E-02 [y] snes_conv_reason:    3
  newton =   1 [     233] linear =   119 [     27893] cuts =  0 [   0]
  --> max chng: dpmx=   1.1333E+00 dtmpmx=   5.9313E-02

== TH FLOW =====================================================================
 Step    228 Time=  1.08000E+01 Dt=  5.00000E-02 [y] snes_conv_reason:    3
  newton =   1 [     234] linear =   119 [     28012] cuts =  0 [   0]
  --> max chng: dpmx=   1.1290E+00 dtmpmx=   5.9141E-02

== TH FLOW =====================================================================
 Step    229 Time=  1.08500E+01 Dt=  5.00000E-02 [y] snes_conv_reason:    3
  newton =   1 [     235] linear =   117 [     28129] cuts =  0 [   0]
  --> max chng: dpmx=   1.1253E+00 dtmpmx=   5.8878E-02

== TH FLOW =====================================================================
 Step    230 Time=  1.09000E+01 Dt=  5.00000E-02 [y] snes_conv_reason:    3
  newton =   1 [     236] linear =   120 [     28249] cuts =  0 [   0]
  --> max chng: dpmx=   1.1212E+00 dtmpmx=   5.8766E-02

== TH FLOW =====================================================================
 Step    231 Time=  1.09500E+01 Dt=  5.00000E-02 [y] snes_conv_reason:    3
  newton =   1 [     237] linear =   121 [     28370] cuts =  0 [   0]
  --> max chng: dpmx=   1.1173E+00 dtmpmx=   5.8562E-02

== TH FLOW =====================================================================
 Step    232 Time=  1.10000E+01 Dt=  5.00000E-02 [y] snes_conv_reason:    3
  newton =   1 [     238] linear =   122 [     28492] cuts =  0 [   0]
  --> max chng: dpmx=   1.1138E+00 dtmpmx=   5.8362E-02

== TH FLOW =====================================================================
 Step    233 Time=  1.10500E+01 Dt=  5.00000E-02 [y] snes_conv_reason:    3
  newton =   1 [     239] linear =   121 [     28613] cuts =  0 [   0]
  --> max chng: dpmx=   1.1099E+00 dtmpmx=   5.8217E-02

== TH FLOW =====================================================================
 Step    234 Time=  1.11000E+01 Dt=  5.00000E-02 [y] snes_conv_reason:    3
  newton =   1 [     240] linear =   121 [     28734] cuts =  0 [   0]
  --> max chng: dpmx=   1.1059E+00 dtmpmx=   5.7982E-02

== TH FLOW =====================================================================
 Step    235 Time=  1.11500E+01 Dt=  5.00000E-02 [y] snes_conv_reason:    3
  newton =   1 [     241] linear =   119 [     28853] cuts =  0 [   0]
  --> max chng: dpmx=   1.1019E+00 dtmpmx=   5.7842E-02

== TH FLOW =====================================================================
 Step    236 Time=  1.12000E+01 Dt=  5.00000E-02 [y] snes_conv_reason:    3
  newton =   1 [     242] linear =   117 [     28970] cuts =  0 [   0]
  --> max chng: dpmx=   1.0987E+00 dtmpmx=   5.7665E-02

== TH FLOW =====================================================================
 Step    237 Time=  1.12500E+01 Dt=  5.00000E-02 [y] snes_conv_reason:    3
  newton =   1 [     243] linear =   121 [     29091] cuts =  0 [   0]
  --> max chng: dpmx=   1.0938E+00 dtmpmx=   5.7438E-02

== TH FLOW =====================================================================
 Step    238 Time=  1.13000E+01 Dt=  5.00000E-02 [y] snes_conv_reason:    3
  newton =   1 [     244] linear =   123 [     29214] cuts =  0 [   0]
  --> max chng: dpmx=   1.0907E+00 dtmpmx=   5.7319E-02

== TH FLOW =====================================================================
 Step    239 Time=  1.13500E+01 Dt=  5.00000E-02 [y] snes_conv_reason:    3
  newton =   1 [     245] linear =   118 [     29332] cuts =  0 [   0]
  --> max chng: dpmx=   1.0868E+00 dtmpmx=   5.7112E-02

== TH FLOW =====================================================================
 Step    240 Time=  1.14000E+01 Dt=  5.00000E-02 [y] snes_conv_reason:    3
  newton =   1 [     246] linear =   122 [     29454] cuts =  0 [   0]
  --> max chng: dpmx=   1.0828E+00 dtmpmx=   5.6944E-02

== TH FLOW =====================================================================
 Step    241 Time=  1.14500E+01 Dt=  5.00000E-02 [y] snes_conv_reason:    3
  newton =   1 [     247] linear =   118 [     29572] cuts =  0 [   0]
  --> max chng: dpmx=   1.0789E+00 dtmpmx=   5.6793E-02

== TH FLOW =====================================================================
 Step    242 Time=  1.15000E+01 Dt=  5.00000E-02 [y] snes_conv_reason:    3
  newton =   1 [     248] linear =   117 [     29689] cuts =  0 [   0]
  --> max chng: dpmx=   1.0749E+00 dtmpmx=   5.6558E-02

== TH FLOW =====================================================================
 Step    243 Time=  1.15500E+01 Dt=  5.00000E-02 [y] snes_conv_reason:    3
  newton =   1 [     249] linear =   119 [     29808] cuts =  0 [   0]
  --> max chng: dpmx=   1.0710E+00 dtmpmx=   5.6446E-02

== TH FLOW =====================================================================
 Step    244 Time=  1.16000E+01 Dt=  5.00000E-02 [y] snes_conv_reason:    3
  newton =   1 [     250] linear =   121 [     29929] cuts =  0 [   0]
  --> max chng: dpmx=   1.0673E+00 dtmpmx=   5.6266E-02

== TH FLOW =====================================================================
 Step    245 Time=  1.16500E+01 Dt=  5.00000E-02 [y] snes_conv_reason:    3
  newton =   1 [     251] linear =   110 [     30039] cuts =  0 [   0]
  --> max chng: dpmx=   1.0637E+00 dtmpmx=   5.6071E-02

== TH FLOW =====================================================================
 Step    246 Time=  1.17000E+01 Dt=  5.00000E-02 [y] snes_conv_reason:    3
  newton =   1 [     252] linear =   121 [     30160] cuts =  0 [   0]
  --> max chng: dpmx=   1.0597E+00 dtmpmx=   5.5945E-02

== TH FLOW =====================================================================
 Step    247 Time=  1.17500E+01 Dt=  5.00000E-02 [y] snes_conv_reason:    3
  newton =   1 [     253] linear =   121 [     30281] cuts =  0 [   0]
  --> max chng: dpmx=   1.0559E+00 dtmpmx=   5.5737E-02

== TH FLOW =====================================================================
 Step    248 Time=  1.18000E+01 Dt=  5.00000E-02 [y] snes_conv_reason:    3
  newton =   1 [     254] linear =   121 [     30402] cuts =  0 [   0]
  --> max chng: dpmx=   1.0521E+00 dtmpmx=   5.5597E-02

== TH FLOW =====================================================================
 Step    249 Time=  1.18500E+01 Dt=  5.00000E-02 [y] snes_conv_reason:    3
  newton =   1 [     255] linear =   120 [     30522] cuts =  0 [   0]
  --> max chng: dpmx=   1.0478E+00 dtmpmx=   5.5442E-02

== TH FLOW =====================================================================
 Step    250 Time=  1.19000E+01 Dt=  5.00000E-02 [y] snes_conv_reason:    3
  newton =   1 [     256] linear =   120 [     30642] cuts =  0 [   0]
  --> max chng: dpmx=   1.0445E+00 dtmpmx=   5.5223E-02

== TH FLOW =====================================================================
 Step    251 Time=  1.19500E+01 Dt=  5.00000E-02 [y] snes_conv_reason:    3
  newton =   1 [     257] linear =   116 [     30758] cuts =  0 [   0]
  --> max chng: dpmx=   1.0404E+00 dtmpmx=   5.5120E-02

== TH FLOW =====================================================================
 Step    252 Time=  1.20000E+01 Dt=  5.00000E-02 [y] snes_conv_reason:    3
  newton =   1 [     258] linear =   123 [     30881] cuts =  0 [   0]
  --> max chng: dpmx=   1.0364E+00 dtmpmx=   5.4937E-02

== TH FLOW =====================================================================
 Step    253 Time=  1.20500E+01 Dt=  5.00000E-02 [y] snes_conv_reason:    3
  newton =   1 [     259] linear =   120 [     31001] cuts =  0 [   0]
  --> max chng: dpmx=   1.0331E+00 dtmpmx=   5.4772E-02

== TH FLOW =====================================================================
 Step    254 Time=  1.21000E+01 Dt=  5.00000E-02 [y] snes_conv_reason:    3
  newton =   1 [     260] linear =   120 [     31121] cuts =  0 [   0]
  --> max chng: dpmx=   1.0289E+00 dtmpmx=   5.4640E-02

== TH FLOW =====================================================================
 Step    255 Time=  1.21500E+01 Dt=  5.00000E-02 [y] snes_conv_reason:    3
  newton =   1 [     261] linear =   120 [     31241] cuts =  0 [   0]
  --> max chng: dpmx=   1.0253E+00 dtmpmx=   5.4430E-02

== TH FLOW =====================================================================
 Step    256 Time=  1.22000E+01 Dt=  5.00000E-02 [y] snes_conv_reason:    3
  newton =   1 [     262] linear =   121 [     31362] cuts =  0 [   0]
  --> max chng: dpmx=   1.0209E+00 dtmpmx=   5.4316E-02

== TH FLOW =====================================================================
 Step    257 Time=  1.22500E+01 Dt=  5.00000E-02 [y] snes_conv_reason:    3
  newton =   1 [     263] linear =   119 [     31481] cuts =  0 [   0]
  --> max chng: dpmx=   1.0177E+00 dtmpmx=   5.4157E-02

[...]
 Step    493 Time=  2.40500E+01 Dt=  5.00000E-02 [y] snes_conv_reason:    3
  newton =   1 [     499] linear =   118 [     59364] cuts =  0 [   0]
  --> max chng: dpmx=   1.6017E+00 dtmpmx=   3.2661E-02

== TH FLOW =====================================================================
 Step    494 Time=  2.41000E+01 Dt=  5.00000E-02 [y] snes_conv_reason:    3
  newton =   1 [     500] linear =   117 [     59481] cuts =  0 [   0]
  --> max chng: dpmx=   1.6049E+00 dtmpmx=   3.2605E-02

== TH FLOW =====================================================================
 Step    495 Time=  2.41500E+01 Dt=  5.00000E-02 [y] snes_conv_reason:    3
  newton =   1 [     501] linear =   114 [     59595] cuts =  0 [   0]
  --> max chng: dpmx=   1.6082E+00 dtmpmx=   3.2543E-02

== TH FLOW =====================================================================
 Step    496 Time=  2.42000E+01 Dt=  5.00000E-02 [y] snes_conv_reason:    3
  newton =   1 [     502] linear =   118 [     59713] cuts =  0 [   0]
  --> max chng: dpmx=   1.6116E+00 dtmpmx=   3.2502E-02

== TH FLOW =====================================================================
 Step    497 Time=  2.42500E+01 Dt=  5.00000E-02 [y] snes_conv_reason:    3
  newton =   1 [     503] linear =   113 [     59826] cuts =  0 [   0]
  --> max chng: dpmx=   1.6146E+00 dtmpmx=   3.2437E-02

== TH FLOW =====================================================================
 Step    498 Time=  2.43000E+01 Dt=  5.00000E-02 [y] snes_conv_reason:    3
  newton =   1 [     504] linear =   115 [     59941] cuts =  0 [   0]
  --> max chng: dpmx=   1.6181E+00 dtmpmx=   3.2391E-02

== TH FLOW =====================================================================
 Step    499 Time=  2.43500E+01 Dt=  5.00000E-02 [y] snes_conv_reason:    3
  newton =   1 [     505] linear =   116 [     60057] cuts =  0 [   0]
  --> max chng: dpmx=   1.6209E+00 dtmpmx=   3.2341E-02

== TH FLOW =====================================================================
 Step    500 Time=  2.44000E+01 Dt=  5.00000E-02 [y] snes_conv_reason:    3
  newton =   1 [     506] linear =   116 [     60173] cuts =  0 [   0]
  --> max chng: dpmx=   1.6242E+00 dtmpmx=   3.2273E-02

== TH FLOW =====================================================================
 Step    501 Time=  2.44500E+01 Dt=  5.00000E-02 [y] snes_conv_reason:    3
  newton =   1 [     507] linear =   115 [     60288] cuts =  0 [   0]
  --> max chng: dpmx=   1.6273E+00 dtmpmx=   3.2237E-02

== TH FLOW =====================================================================
 Step    502 Time=  2.45000E+01 Dt=  5.00000E-02 [y] snes_conv_reason:    3
  newton =   1 [     508] linear =   116 [     60404] cuts =  0 [   0]
  --> max chng: dpmx=   1.6304E+00 dtmpmx=   3.2177E-02

== TH FLOW =====================================================================
 Step    503 Time=  2.45500E+01 Dt=  5.00000E-02 [y] snes_conv_reason:    3
  newton =   1 [     509] linear =   115 [     60519] cuts =  0 [   0]
  --> max chng: dpmx=   1.6335E+00 dtmpmx=   3.2125E-02

== TH FLOW =====================================================================
 Step    504 Time=  2.46000E+01 Dt=  5.00000E-02 [y] snes_conv_reason:    3
  newton =   1 [     510] linear =   116 [     60635] cuts =  0 [   0]
  --> max chng: dpmx=   1.6367E+00 dtmpmx=   3.2080E-02

== TH FLOW =====================================================================
 Step    505 Time=  2.46500E+01 Dt=  5.00000E-02 [y] snes_conv_reason:    3
  newton =   1 [     511] linear =   117 [     60752] cuts =  0 [   0]
  --> max chng: dpmx=   1.6394E+00 dtmpmx=   3.2010E-02

== TH FLOW =====================================================================
 Step    506 Time=  2.47000E+01 Dt=  5.00000E-02 [y] snes_conv_reason:    3
  newton =   1 [     512] linear =   118 [     60870] cuts =  0 [   0]
  --> max chng: dpmx=   1.6428E+00 dtmpmx=   3.1975E-02

== TH FLOW =====================================================================
 Step    507 Time=  2.47500E+01 Dt=  5.00000E-02 [y] snes_conv_reason:    3
  newton =   1 [     513] linear =   117 [     60987] cuts =  0 [   0]
  --> max chng: dpmx=   1.6454E+00 dtmpmx=   3.1920E-02

== TH FLOW =====================================================================
 Step    508 Time=  2.48000E+01 Dt=  5.00000E-02 [y] snes_conv_reason:    3
  newton =   1 [     514] linear =   113 [     61100] cuts =  0 [   0]
  --> max chng: dpmx=   1.6488E+00 dtmpmx=   3.1862E-02

== TH FLOW =====================================================================
 Step    509 Time=  2.48500E+01 Dt=  5.00000E-02 [y] snes_conv_reason:    3
  newton =   1 [     515] linear =   117 [     61217] cuts =  0 [   0]
  --> max chng: dpmx=   1.6514E+00 dtmpmx=   3.1822E-02

== TH FLOW =====================================================================
 Step    510 Time=  2.49000E+01 Dt=  5.00000E-02 [y] snes_conv_reason:    3
  newton =   1 [     516] linear =   112 [     61329] cuts =  0 [   0]
  --> max chng: dpmx=   1.6544E+00 dtmpmx=   3.1758E-02

== TH FLOW =====================================================================
 Step    511 Time=  2.49500E+01 Dt=  5.00000E-02 [y] snes_conv_reason:    3
  newton =   1 [     517] linear =   117 [     61446] cuts =  0 [   0]
  --> max chng: dpmx=   1.6573E+00 dtmpmx=   3.1716E-02

== TH FLOW =====================================================================
 Step    512 Time=  2.50000E+01 Dt=  5.00000E-02 [y] snes_conv_reason:    3
  newton =   1 [     518] linear =   119 [     61565] cuts =  0 [   0]
  --> max chng: dpmx=   1.6602E+00 dtmpmx=   3.1667E-02

== TH FLOW =====================================================================
 Step    513 Time=  2.50500E+01 Dt=  5.00000E-02 [y] snes_conv_reason:    3
  newton =   1 [     519] linear =   120 [     61685] cuts =  0 [   0]
  --> max chng: dpmx=   1.6629E+00 dtmpmx=   3.1603E-02

== TH FLOW =====================================================================
 Step    514 Time=  2.51000E+01 Dt=  5.00000E-02 [y] snes_conv_reason:    3
  newton =   1 [     520] linear =   115 [     61800] cuts =  0 [   0]
  --> max chng: dpmx=   1.6658E+00 dtmpmx=   3.1568E-02

== TH FLOW =====================================================================
 Step    515 Time=  2.51500E+01 Dt=  5.00000E-02 [y] snes_conv_reason:    3
  newton =   1 [     521] linear =   114 [     61914] cuts =  0 [   0]
  --> max chng: dpmx=   1.6681E+00 dtmpmx=   3.1509E-02

== TH FLOW =====================================================================
 Step    516 Time=  2.52000E+01 Dt=  5.00000E-02 [y] snes_conv_reason:    3
  newton =   1 [     522] linear =   117 [     62031] cuts =  0 [   0]
  --> max chng: dpmx=   1.6709E+00 dtmpmx=   3.1461E-02

== TH FLOW =====================================================================
 Step    517 Time=  2.52500E+01 Dt=  5.00000E-02 [y] snes_conv_reason:    3
  newton =   1 [     523] linear =   117 [     62148] cuts =  0 [   0]
  --> max chng: dpmx=   1.6736E+00 dtmpmx=   3.1417E-02

== TH FLOW =====================================================================
 Step    518 Time=  2.53000E+01 Dt=  5.00000E-02 [y] snes_conv_reason:    3
  newton =   1 [     524] linear =   117 [     62265] cuts =  0 [   0]
  --> max chng: dpmx=   1.6760E+00 dtmpmx=   3.1349E-02

== TH FLOW =====================================================================
 Step    519 Time=  2.53500E+01 Dt=  5.00000E-02 [y] snes_conv_reason:    3
  newton =   1 [     525] linear =   113 [     62378] cuts =  0 [   0]
  --> max chng: dpmx=   1.6786E+00 dtmpmx=   3.1317E-02

== TH FLOW =====================================================================
 Step    520 Time=  2.54000E+01 Dt=  5.00000E-02 [y] snes_conv_reason:    3
  newton =   1 [     526] linear =   113 [     62491] cuts =  0 [   0]
  --> max chng: dpmx=   1.6810E+00 dtmpmx=   3.1263E-02

== TH FLOW =====================================================================
 Step    521 Time=  2.54500E+01 Dt=  5.00000E-02 [y] snes_conv_reason:    3
  newton =   1 [     527] linear =   115 [     62606] cuts =  0 [   0]
  --> max chng: dpmx=   1.6832E+00 dtmpmx=   3.1210E-02

== TH FLOW =====================================================================
 Step    522 Time=  2.55000E+01 Dt=  5.00000E-02 [y] snes_conv_reason:    3
  newton =   1 [     528] linear =   119 [     62725] cuts =  0 [   0]
  --> max chng: dpmx=   1.6856E+00 dtmpmx=   3.1170E-02

== TH FLOW =====================================================================
 Step    523 Time=  2.55500E+01 Dt=  5.00000E-02 [y] snes_conv_reason:    3
  newton =   1 [     529] linear =   119 [     62844] cuts =  0 [   0]
  --> max chng: dpmx=   1.6879E+00 dtmpmx=   3.1108E-02

== TH FLOW =====================================================================
 Step    524 Time=  2.56000E+01 Dt=  5.00000E-02 [y] snes_conv_reason:    3
  newton =   1 [     530] linear =   118 [     62962] cuts =  0 [   0]
  --> max chng: dpmx=   1.6901E+00 dtmpmx=   3.1069E-02

== TH FLOW =====================================================================
 Step    525 Time=  2.56500E+01 Dt=  5.00000E-02 [y] snes_conv_reason:    3
  newton =   1 [     531] linear =   117 [     63079] cuts =  0 [   0]
  --> max chng: dpmx=   1.6919E+00 dtmpmx=   3.1021E-02

== TH FLOW =====================================================================
 Step    526 Time=  2.57000E+01 Dt=  5.00000E-02 [y] snes_conv_reason:    3
  newton =   1 [     532] linear =   117 [     63196] cuts =  0 [   0]
  --> max chng: dpmx=   1.6940E+00 dtmpmx=   3.0962E-02

== TH FLOW =====================================================================
 Step    527 Time=  2.57500E+01 Dt=  5.00000E-02 [y] snes_conv_reason:    3
  newton =   1 [     533] linear =   112 [     63308] cuts =  0 [   0]
  --> max chng: dpmx=   1.6962E+00 dtmpmx=   3.0926E-02

== TH FLOW =====================================================================
 Step    528 Time=  2.58000E+01 Dt=  5.00000E-02 [y] snes_conv_reason:    3
  newton =   1 [     534] linear =   116 [     63424] cuts =  0 [   0]
  --> max chng: dpmx=   1.6978E+00 dtmpmx=   3.0869E-02

== TH FLOW =====================================================================
 Step    529 Time=  2.58500E+01 Dt=  5.00000E-02 [y] snes_conv_reason:    3
  newton =   1 [     535] linear =   120 [     63544] cuts =  0 [   0]
  --> max chng: dpmx=   1.6994E+00 dtmpmx=   3.0825E-02

== TH FLOW =====================================================================
 Step    530 Time=  2.59000E+01 Dt=  5.00000E-02 [y] snes_conv_reason:    3
  newton =   1 [     536] linear =   117 [     63661] cuts =  0 [   0]
  --> max chng: dpmx=   1.7009E+00 dtmpmx=   3.0781E-02

== TH FLOW =====================================================================
 Step    531 Time=  2.59500E+01 Dt=  5.00000E-02 [y] snes_conv_reason:    3
  newton =   1 [     537] linear =   116 [     63777] cuts =  0 [   0]
  --> max chng: dpmx=   1.7029E+00 dtmpmx=   3.0717E-02

== TH FLOW =====================================================================
 Step    532 Time=  2.60000E+01 Dt=  5.00000E-02 [y] snes_conv_reason:    3
  newton =   1 [     538] linear =   116 [     63893] cuts =  0 [   0]
  --> max chng: dpmx=   1.7041E+00 dtmpmx=   3.0686E-02

== TH FLOW =====================================================================
 Step    533 Time=  2.60500E+01 Dt=  5.00000E-02 [y] snes_conv_reason:    3
  newton =   1 [     539] linear =   117 [     64010] cuts =  0 [   0]
  --> max chng: dpmx=   1.7051E+00 dtmpmx=   3.0633E-02

== TH FLOW =====================================================================
 Step    534 Time=  2.61000E+01 Dt=  5.00000E-02 [y] snes_conv_reason:    3
  newton =   1 [     540] linear =   117 [     64127] cuts =  0 [   0]
  --> max chng: dpmx=   1.7067E+00 dtmpmx=   3.0584E-02

== TH FLOW =====================================================================
 Step    535 Time=  2.61500E+01 Dt=  5.00000E-02 [y] snes_conv_reason:    3
  newton =   1 [     541] linear =   113 [     64240] cuts =  0 [   0]
  --> max chng: dpmx=   1.7074E+00 dtmpmx=   3.0544E-02

== TH FLOW =====================================================================
 Step    536 Time=  2.62000E+01 Dt=  5.00000E-02 [y] snes_conv_reason:    3
  newton =   1 [     542] linear =   114 [     64354] cuts =  0 [   0]
  --> max chng: dpmx=   1.7089E+00 dtmpmx=   3.0483E-02

== TH FLOW =====================================================================
 Step    537 Time=  2.62500E+01 Dt=  5.00000E-02 [y] snes_conv_reason:    3
  newton =   1 [     543] linear =   117 [     64471] cuts =  0 [   0]
  --> max chng: dpmx=   1.7092E+00 dtmpmx=   3.0449E-02

== TH FLOW =====================================================================
 Step    538 Time=  2.63000E+01 Dt=  5.00000E-02 [y] snes_conv_reason:    3
  newton =   1 [     544] linear =   117 [     64588] cuts =  0 [   0]
  --> max chng: dpmx=   1.7099E+00 dtmpmx=   3.0400E-02

== TH FLOW =====================================================================
 Step    539 Time=  2.63500E+01 Dt=  5.00000E-02 [y] snes_conv_reason:    3
  newton =   1 [     545] linear =   114 [     64702] cuts =  0 [   0]
  --> max chng: dpmx=   1.7107E+00 dtmpmx=   3.0346E-02

== TH FLOW =====================================================================
 Step    540 Time=  2.64000E+01 Dt=  5.00000E-02 [y] snes_conv_reason:    3
  newton =   1 [     546] linear =   117 [     64819] cuts =  0 [   0]
  --> max chng: dpmx=   1.7110E+00 dtmpmx=   3.0311E-02

== TH FLOW =====================================================================
 Step    541 Time=  2.64500E+01 Dt=  5.00000E-02 [y] snes_conv_reason:    3
  newton =   1 [     547] linear =   112 [     64931] cuts =  0 [   0]
  --> max chng: dpmx=   1.7113E+00 dtmpmx=   3.0254E-02

== TH FLOW =====================================================================
 Step    542 Time=  2.65000E+01 Dt=  5.00000E-02 [y] snes_conv_reason:    3
  newton =   1 [     548] linear =   116 [     65047] cuts =  0 [   0]
  --> max chng: dpmx=   1.7113E+00 dtmpmx=   3.0214E-02

== TH FLOW =====================================================================
 Step    543 Time=  2.65500E+01 Dt=  5.00000E-02 [y] snes_conv_reason:    3
  newton =   1 [     549] linear =   113 [     65160] cuts =  0 [   0]
  --> max chng: dpmx=   1.7111E+00 dtmpmx=   3.0170E-02

== TH FLOW =====================================================================
 Step    544 Time=  2.66000E+01 Dt=  5.00000E-02 [y] snes_conv_reason:    3
  newton =   1 [     550] linear =   115 [     65275] cuts =  0 [   0]
  --> max chng: dpmx=   1.7111E+00 dtmpmx=   3.0111E-02

== TH FLOW =====================================================================
 Step    545 Time=  2.66500E+01 Dt=  5.00000E-02 [y] snes_conv_reason:    3
  newton =   1 [     551] linear =   113 [     65388] cuts =  0 [   0]
  --> max chng: dpmx=   1.7105E+00 dtmpmx=   3.0080E-02

== TH FLOW =====================================================================
 Step    546 Time=  2.67000E+01 Dt=  5.00000E-02 [y] snes_conv_reason:    3
  newton =   1 [     552] linear =   117 [     65505] cuts =  0 [   0]
  --> max chng: dpmx=   1.7099E+00 dtmpmx=   3.0028E-02

== TH FLOW =====================================================================
 Step    547 Time=  2.67500E+01 Dt=  5.00000E-02 [y] snes_conv_reason:    3
  newton =   1 [     553] linear =   119 [     65624] cuts =  0 [   0]
  --> max chng: dpmx=   1.7093E+00 dtmpmx=   2.9983E-02

== TH FLOW =====================================================================
 Step    548 Time=  2.68000E+01 Dt=  5.00000E-02 [y] snes_conv_reason:    3
  newton =   1 [     554] linear =   117 [     65741] cuts =  0 [   0]
  --> max chng: dpmx=   1.7083E+00 dtmpmx=   2.9943E-02

== TH FLOW =====================================================================
 Step    549 Time=  2.68500E+01 Dt=  5.00000E-02 [y] snes_conv_reason:    3
  newton =   1 [     555] linear =   117 [     65858] cuts =  0 [   0]
  --> max chng: dpmx=   1.7070E+00 dtmpmx=   2.9883E-02

== TH FLOW =====================================================================
 Step    550 Time=  2.69000E+01 Dt=  5.00000E-02 [y] snes_conv_reason:    3
  newton =   1 [     556] linear =   117 [     65975] cuts =  0 [   0]
  --> max chng: dpmx=   1.7056E+00 dtmpmx=   2.9852E-02

== TH FLOW =====================================================================
 Step    551 Time=  2.69500E+01 Dt=  5.00000E-02 [y] snes_conv_reason:    3
  newton =   1 [     557] linear =   115 [     66090] cuts =  0 [   0]
  --> max chng: dpmx=   1.7041E+00 dtmpmx=   2.9804E-02

== TH FLOW =====================================================================
 Step    552 Time=  2.70000E+01 Dt=  5.00000E-02 [y] snes_conv_reason:    3
  newton =   1 [     558] linear =   117 [     66207] cuts =  0 [   0]
  --> max chng: dpmx=   1.7024E+00 dtmpmx=   2.9754E-02

== TH FLOW =====================================================================
 Step    553 Time=  2.70500E+01 Dt=  5.00000E-02 [y] snes_conv_reason:    3
  newton =   1 [     559] linear =   117 [     66324] cuts =  0 [   0]
  --> max chng: dpmx=   1.7002E+00 dtmpmx=   2.9719E-02

== TH FLOW =====================================================================
 Step    554 Time=  2.71000E+01 Dt=  5.00000E-02 [y] snes_conv_reason:    3
  newton =   1 [     560] linear =   117 [     66441] cuts =  0 [   0]
  --> max chng: dpmx=   1.6981E+00 dtmpmx=   2.9663E-02

== TH FLOW =====================================================================
 Step    555 Time=  2.71500E+01 Dt=  5.00000E-02 [y] snes_conv_reason:    3
  newton =   1 [     561] linear =   117 [     66558] cuts =  0 [   0]
  --> max chng: dpmx=   1.6955E+00 dtmpmx=   2.9627E-02

== TH FLOW =====================================================================
 Step    556 Time=  2.72000E+01 Dt=  5.00000E-02 [y] snes_conv_reason:    3
  newton =   1 [     562] linear =   107 [     66665] cuts =  0 [   0]
  --> max chng: dpmx=   1.6928E+00 dtmpmx=   2.9583E-02

== TH FLOW =====================================================================
 Step    557 Time=  2.72500E+01 Dt=  5.00000E-02 [y] snes_conv_reason:    3
  newton =   1 [     563] linear =   119 [     66784] cuts =  0 [   0]
  --> max chng: dpmx=   1.6900E+00 dtmpmx=   2.9529E-02

== TH FLOW =====================================================================
 Step    558 Time=  2.73000E+01 Dt=  5.00000E-02 [y] snes_conv_reason:    3
  newton =   1 [     564] linear =   119 [     66903] cuts =  0 [   0]
  --> max chng: dpmx=   1.6867E+00 dtmpmx=   2.9497E-02

== TH FLOW =====================================================================
 Step    559 Time=  2.73500E+01 Dt=  5.00000E-02 [y] snes_conv_reason:    3
  newton =   1 [     565] linear =   120 [     67023] cuts =  0 [   0]
  --> max chng: dpmx=   1.6832E+00 dtmpmx=   2.9445E-02

== TH FLOW =====================================================================
 Step    560 Time=  2.74000E+01 Dt=  5.00000E-02 [y] snes_conv_reason:    3
  newton =   1 [     566] linear =   120 [     67143] cuts =  0 [   0]
  --> max chng: dpmx=   1.6795E+00 dtmpmx=   2.9404E-02

== TH FLOW =====================================================================
 Step    561 Time=  2.74500E+01 Dt=  5.00000E-02 [y] snes_conv_reason:    3
  newton =   1 [     567] linear =   120 [     67263] cuts =  0 [   0]
  --> max chng: dpmx=   1.6755E+00 dtmpmx=   2.9365E-02

== TH FLOW =====================================================================
 Step    562 Time=  2.75000E+01 Dt=  5.00000E-02 [y] snes_conv_reason:    3
  newton =   1 [     568] linear =   120 [     67383] cuts =  0 [   0]
  --> max chng: dpmx=   1.6713E+00 dtmpmx=   2.9306E-02

 Wall Clock Time:  1.4756E+02 [sec]   2.4594E+00 [min]   4.0990E-02 [hr]
