
===================
  PFLOTRAN v3.0.1
===================

 Extent of Gridded Domain
  X: 2.5000000000000000 - 97.500000000000000
  Y: 2.5000000000000000 - 1277.5000000000000
  Z: 2.5000000000000000 - 2.5000000000000000


=+=+=+=+=+=+=+=+=+=+=+=+=+=+=+=+=+=+=+=+=+=+=+=+=+=+=+=+=+=+=+=+=+=+=+=+=+=+=+=+

  Initial Condition

--------------------------------------------------------------------------------
          Flow Condition:   initial
                  Region:   all
--------------------------------------------------------------------------------

  Flow Condition: initial
    Synchronize time with update: no
    Time units: yr
    Length units: m
      Datum:
        Dataset: Unnamed Ascii Dataset
          Type: dataset_ascii_type
          Transient: no
          Array Rank:  3

    Sub Condition: pressure
      Type: hydrostatic
      Gradient:
        Dataset: Unnamed Ascii Dataset
          Type: dataset_ascii_type
          Transient: no
          Array Rank:  3
      Data:
        Dataset: Unnamed Ascii Dataset
          Type: dataset_ascii_type
          Transient: no
          Array Rank:  1

    Sub Condition: temperature
      Type: dirichlet
      Gradient:
      Data:
        Dataset: Unnamed Ascii Dataset
          Type: dataset_ascii_type
          Transient: no
          Array Rank:  1

--------------------------------------------------------------------------------

=+=+=+=+=+=+=+=+=+=+=+=+=+=+=+=+=+=+=+=+=+=+=+=+=+=+=+=+=+=+=+=+=+=+=+=+=+=+=+=+

  Boundary Condition

--------------------------------------------------------------------------------
          Flow Condition:   initial
                  Region:   north
--------------------------------------------------------------------------------

  Flow Condition: initial
    Synchronize time with update: no
    Time units: yr
    Length units: m
      Datum:
        Dataset: Unnamed Ascii Dataset
          Type: dataset_ascii_type
          Transient: no
          Array Rank:  3

    Sub Condition: pressure
      Type: hydrostatic
      Gradient:
        Dataset: Unnamed Ascii Dataset
          Type: dataset_ascii_type
          Transient: no
          Array Rank:  3
      Data:
        Dataset: Unnamed Ascii Dataset
          Type: dataset_ascii_type
          Transient: no
          Array Rank:  1

    Sub Condition: temperature
      Type: dirichlet
      Gradient:
      Data:
        Dataset: Unnamed Ascii Dataset
          Type: dataset_ascii_type
          Transient: no
          Array Rank:  1

--------------------------------------------------------------------------------

=+=+=+=+=+=+=+=+=+=+=+=+=+=+=+=+=+=+=+=+=+=+=+=+=+=+=+=+=+=+=+=+=+=+=+=+=+=+=+=+

  Boundary Condition

--------------------------------------------------------------------------------
          Flow Condition:   initial
                  Region:   south
--------------------------------------------------------------------------------

  Flow Condition: initial
    Synchronize time with update: no
    Time units: yr
    Length units: m
      Datum:
        Dataset: Unnamed Ascii Dataset
          Type: dataset_ascii_type
          Transient: no
          Array Rank:  3

    Sub Condition: pressure
      Type: hydrostatic
      Gradient:
        Dataset: Unnamed Ascii Dataset
          Type: dataset_ascii_type
          Transient: no
          Array Rank:  3
      Data:
        Dataset: Unnamed Ascii Dataset
          Type: dataset_ascii_type
          Transient: no
          Array Rank:  1

    Sub Condition: temperature
      Type: dirichlet
      Gradient:
      Data:
        Dataset: Unnamed Ascii Dataset
          Type: dataset_ascii_type
          Transient: no
          Array Rank:  1

--------------------------------------------------------------------------------

=+=+=+=+=+=+=+=+=+=+=+=+=+=+=+=+=+=+=+=+=+=+=+=+=+=+=+=+=+=+=+=+=+=+=+=+=+=+=+=+

  Source Sink

--------------------------------------------------------------------------------
          Flow Condition:   injection
                  Region:   heatpump_inject0
--------------------------------------------------------------------------------

  Flow Condition: injection
    Synchronize time with update: no
    Time units: yr
    Length units: m
      Datum:

    Sub Condition: rate
      Type: scaled volumetric rate
      Gradient:
      Data:
        Dataset: Unnamed Ascii Dataset
          Type: dataset_ascii_type
          Is transient?: yes
          Number of times:      3
          Is cyclic?: no
          Buffer:
            Rank:  2
            Dims:    1   3
            Buffer Slice Size:   0
          Array Rank:  1

    Sub Condition: temperature
      Type: dirichlet
      Gradient:
      Data:
        Dataset: Unnamed Ascii Dataset
          Type: dataset_ascii_type
          Transient: no
          Array Rank:  1

--------------------------------------------------------------------------------

 Requested processors =    32

FLOW Time Stepper
                 acceleration: on
       acceleration threshold: 5
       number of ramp entries: 5
                ramp entry #1: 2.0000
                ramp entry #2: 2.0000
                ramp entry #3: 2.0000
                ramp entry #4: 2.0000
                ramp entry #5: 2.0000
                ramp entry #6: 1.8000
                ramp entry #7: 1.6000
                ramp entry #8: 1.4000
                ramp entry #9: 1.2000
               ramp entry #10: 1.0000
               ramp entry #11: 1.0000
               ramp entry #12: 1.0000
               ramp entry #13: 1.0000
      maximum number of steps: 999999
constant time steps threshold: 5
       maximum number of cuts: 16
             reduction factor: 5.000000E-01
        maximum growth factor: 2.000000E+00

FLOW Newton Solver
                         atol: 1.000000E-50
                         rtol: 1.000000E-03
                         stol: 1.000000E-08
                         dtol: 1.000000E+04
                      maxnorm: 1.000000E+20
                    inftolres: -9.990000E+02
                    inftolupd: 1.000000E+00
                 inftolrelupd: -9.990000E+02
                 inftolsclres: -9.990000E+02
                     max iter: 50
                     min iter: 1
                         maxf: 10000
                  matrix type: baij
         precond. matrix type: baij
               inexact newton: off
            print convergence: on
   print detailed convergence: off
          check infinity norm: on

FLOW Linear Solver
                       solver: bcgs
               preconditioner: bjacobi
                         atol: 1.000000E-50
                         rtol: 1.000000E-05
                         dtol: 1.000000E+04
            maximum iteration: 10000

== TH FLOW =====================================================================
 Step      1 Time=  1.00000E-05 Dt=  1.00000E-05 [y] snes_conv_reason:   11
  newton =   1 [       1] linear =   110 [       110] cuts =  0 [   0]
  --> max chng: dpmx=   7.1296E-02 dtmpmx=   5.2805E-09

== TH FLOW =====================================================================
 Step      2 Time=  3.00000E-05 Dt=  2.00000E-05 [y] snes_conv_reason:   11
  newton =   1 [       2] linear =   124 [       234] cuts =  0 [   0]
  --> max chng: dpmx=   3.1900E-02 dtmpmx=   1.0422E-08

== TH FLOW =====================================================================
 Step      3 Time=  7.00000E-05 Dt=  4.00000E-05 [y] snes_conv_reason:   11
  newton =   1 [       3] linear =   118 [       352] cuts =  0 [   0]
  --> max chng: dpmx=   7.7363E-03 dtmpmx=   2.0775E-08

== TH FLOW =====================================================================
 Step      4 Time=  1.50000E-04 Dt=  8.00000E-05 [y] snes_conv_reason:   11
  newton =   1 [       4] linear =   124 [       476] cuts =  0 [   0]
  --> max chng: dpmx=   9.9297E-04 dtmpmx=   4.1531E-08

== TH FLOW =====================================================================
 Step      5 Time=  3.10000E-04 Dt=  1.60000E-04 [y] snes_conv_reason:   11
  newton =   1 [       5] linear =   127 [       603] cuts =  0 [   0]
  --> max chng: dpmx=   6.5638E-05 dtmpmx=   8.3062E-08

== TH FLOW =====================================================================
 Step      6 Time=  6.30000E-04 Dt=  3.20000E-04 [y] snes_conv_reason:   11
  newton =   1 [       6] linear =   130 [       733] cuts =  0 [   0]
  --> max chng: dpmx=   1.9002E-06 dtmpmx=   1.6612E-07

== TH FLOW =====================================================================
 Step      7 Time=  1.27000E-03 Dt=  6.40000E-04 [y] snes_conv_reason:   11
  newton =   1 [       7] linear =   126 [       859] cuts =  0 [   0]
  --> max chng: dpmx=   1.2923E-06 dtmpmx=   3.3225E-07

== TH FLOW =====================================================================
 Step      8 Time=  2.55000E-03 Dt=  1.28000E-03 [y] snes_conv_reason:   11
  newton =   1 [       8] linear =   125 [       984] cuts =  0 [   0]
  --> max chng: dpmx=   2.6387E-06 dtmpmx=   6.6450E-07

== TH FLOW =====================================================================
 Step      9 Time=  5.11000E-03 Dt=  2.56000E-03 [y] snes_conv_reason:   11
  newton =   1 [       9] linear =   131 [      1115] cuts =  0 [   0]
  --> max chng: dpmx=   5.4785E-06 dtmpmx=   1.3290E-06

== TH FLOW =====================================================================
 Step     10 Time=  1.02300E-02 Dt=  5.12000E-03 [y] snes_conv_reason:   11
  newton =   1 [      10] linear =   123 [      1238] cuts =  0 [   0]
  --> max chng: dpmx=   1.1764E-05 dtmpmx=   2.6580E-06

== TH FLOW =====================================================================
 Step     11 Time=  2.04700E-02 Dt=  1.02400E-02 [y] snes_conv_reason:   11
  newton =   1 [      11] linear =   127 [      1365] cuts =  0 [   0]
  --> max chng: dpmx=   2.6751E-05 dtmpmx=   5.3160E-06

== TH FLOW =====================================================================
 Step     12 Time=  4.09500E-02 Dt=  2.04800E-02 [y] snes_conv_reason:   11
  newton =   1 [      12] linear =   124 [      1489] cuts =  0 [   0]
  --> max chng: dpmx=   6.6408E-05 dtmpmx=   1.0632E-05

== TH FLOW =====================================================================
 Step     13 Time=  8.19100E-02 Dt=  4.09600E-02 [y] snes_conv_reason:   11
  newton =   1 [      13] linear =   130 [      1619] cuts =  0 [   0]
  --> max chng: dpmx=   1.8358E-04 dtmpmx=   2.1264E-05

== TH FLOW =====================================================================
 Step     14 Time=  1.00000E-01 Dt=  1.80900E-02 [y] snes_conv_reason:   11
  newton =   1 [      14] linear =   130 [      1749] cuts =  0 [   0]
  --> max chng: dpmx=   9.1036E-05 dtmpmx=   9.3913E-06

== TH FLOW =====================================================================
 Step     15 Time=  1.50000E-01 Dt=  5.00000E-02 [y] snes_conv_reason:   11
  newton =   1 [      15] linear =   133 [      1882] cuts =  0 [   0]
  --> max chng: dpmx=   3.2625E-04 dtmpmx=   2.5957E-05

== TH FLOW =====================================================================
 Step     16 Time=  2.00000E-01 Dt=  5.00000E-02 [y] snes_conv_reason:   11
  newton =   1 [      16] linear =   133 [      2015] cuts =  0 [   0]
  --> max chng: dpmx=   4.0034E-04 dtmpmx=   2.5957E-05

== TH FLOW =====================================================================
 Step     17 Time=  2.50000E-01 Dt=  5.00000E-02 [y] snes_conv_reason:   11
  newton =   3 [      19] linear =   385 [      2400] cuts =  0 [   0]
  --> max chng: dpmx=   6.2729E+02 dtmpmx=   3.3234E+00

== TH FLOW =====================================================================
 Step     18 Time=  3.00000E-01 Dt=  5.00000E-02 [y] snes_conv_reason:   11
  newton =   2 [      21] linear =   255 [      2655] cuts =  0 [   0]
  --> max chng: dpmx=   4.8265E+00 dtmpmx=   1.3291E+00

== TH FLOW =====================================================================
 Step     19 Time=  3.50000E-01 Dt=  5.00000E-02 [y] snes_conv_reason:   11
  newton =   2 [      23] linear =   271 [      2926] cuts =  0 [   0]
  --> max chng: dpmx=   2.9869E+00 dtmpmx=   9.1840E-01

== TH FLOW =====================================================================
 Step     20 Time=  4.00000E-01 Dt=  5.00000E-02 [y] snes_conv_reason:   11
  newton =   2 [      25] linear =   272 [      3198] cuts =  0 [   0]
  --> max chng: dpmx=   2.7831E+00 dtmpmx=   7.3715E-01

== TH FLOW =====================================================================
 Step     21 Time=  4.50000E-01 Dt=  5.00000E-02 [y] snes_conv_reason:   11
  newton =   2 [      27] linear =   282 [      3480] cuts =  0 [   0]
  --> max chng: dpmx=   2.6284E+00 dtmpmx=   6.3053E-01

== TH FLOW =====================================================================
 Step     22 Time=  5.00000E-01 Dt=  5.00000E-02 [y] snes_conv_reason:   11
  newton =   2 [      29] linear =   268 [      3748] cuts =  0 [   0]
  --> max chng: dpmx=   2.5197E+00 dtmpmx=   5.5780E-01

== TH FLOW =====================================================================
 Step     23 Time=  5.50000E-01 Dt=  5.00000E-02 [y] snes_conv_reason:    3
  newton =   1 [      30] linear =   135 [      3883] cuts =  0 [   0]
  --> max chng: dpmx=   2.4401E+00 dtmpmx=   5.0403E-01

== TH FLOW =====================================================================
 Step     24 Time=  6.00000E-01 Dt=  5.00000E-02 [y] snes_conv_reason:    3
  newton =   1 [      31] linear =   136 [      4019] cuts =  0 [   0]
  --> max chng: dpmx=   2.3671E+00 dtmpmx=   4.6158E-01

== TH FLOW =====================================================================
 Step     25 Time=  6.50000E-01 Dt=  5.00000E-02 [y] snes_conv_reason:    3
  newton =   1 [      32] linear =   140 [      4159] cuts =  0 [   0]
  --> max chng: dpmx=   2.3084E+00 dtmpmx=   4.2692E-01

== TH FLOW =====================================================================
 Step     26 Time=  7.00000E-01 Dt=  5.00000E-02 [y] snes_conv_reason:    3
  newton =   1 [      33] linear =   130 [      4289] cuts =  0 [   0]
  --> max chng: dpmx=   2.2622E+00 dtmpmx=   3.9782E-01

== TH FLOW =====================================================================
 Step     27 Time=  7.50000E-01 Dt=  5.00000E-02 [y] snes_conv_reason:    3
  newton =   1 [      34] linear =   136 [      4425] cuts =  0 [   0]
  --> max chng: dpmx=   2.2202E+00 dtmpmx=   3.7414E-01

== TH FLOW =====================================================================
 Step     28 Time=  8.00000E-01 Dt=  5.00000E-02 [y] snes_conv_reason:    3
  newton =   1 [      35] linear =   132 [      4557] cuts =  0 [   0]
  --> max chng: dpmx=   2.1839E+00 dtmpmx=   3.5557E-01

== TH FLOW =====================================================================
 Step     29 Time=  8.50000E-01 Dt=  5.00000E-02 [y] snes_conv_reason:    3
  newton =   1 [      36] linear =   138 [      4695] cuts =  0 [   0]
  --> max chng: dpmx=   2.1498E+00 dtmpmx=   3.3875E-01

== TH FLOW =====================================================================
 Step     30 Time=  9.00000E-01 Dt=  5.00000E-02 [y] snes_conv_reason:    3
  newton =   1 [      37] linear =   136 [      4831] cuts =  0 [   0]
  --> max chng: dpmx=   2.1187E+00 dtmpmx=   3.2340E-01

== TH FLOW =====================================================================
 Step     31 Time=  9.50000E-01 Dt=  5.00000E-02 [y] snes_conv_reason:    3
  newton =   1 [      38] linear =   144 [      4975] cuts =  0 [   0]
  --> max chng: dpmx=   2.0913E+00 dtmpmx=   3.0933E-01

== TH FLOW =====================================================================
 Step     32 Time=  1.00000E+00 Dt=  5.00000E-02 [y] snes_conv_reason:    3
  newton =   1 [      39] linear =   137 [      5112] cuts =  0 [   0]
  --> max chng: dpmx=   2.0674E+00 dtmpmx=   2.9636E-01

== TH FLOW =====================================================================
 Step     33 Time=  1.05000E+00 Dt=  5.00000E-02 [y] snes_conv_reason:    3
  newton =   1 [      40] linear =   135 [      5247] cuts =  0 [   0]
  --> max chng: dpmx=   2.0440E+00 dtmpmx=   2.8435E-01

== TH FLOW =====================================================================
 Step     34 Time=  1.10000E+00 Dt=  5.00000E-02 [y] snes_conv_reason:    3
  newton =   1 [      41] linear =   137 [      5384] cuts =  0 [   0]
  --> max chng: dpmx=   2.0220E+00 dtmpmx=   2.7473E-01

== TH FLOW =====================================================================
 Step     35 Time=  1.15000E+00 Dt=  5.00000E-02 [y] snes_conv_reason:    3
  newton =   1 [      42] linear =   138 [      5522] cuts =  0 [   0]
  --> max chng: dpmx=   2.0007E+00 dtmpmx=   2.6591E-01

== TH FLOW =====================================================================
 Step     36 Time=  1.20000E+00 Dt=  5.00000E-02 [y] snes_conv_reason:    3
  newton =   1 [      43] linear =   133 [      5655] cuts =  0 [   0]
  --> max chng: dpmx=   1.9811E+00 dtmpmx=   2.5748E-01

== TH FLOW =====================================================================
 Step     37 Time=  1.25000E+00 Dt=  5.00000E-02 [y] snes_conv_reason:    3
  newton =   1 [      44] linear =   134 [      5789] cuts =  0 [   0]
  --> max chng: dpmx=   1.9614E+00 dtmpmx=   2.4944E-01

== TH FLOW =====================================================================
 Step     38 Time=  1.30000E+00 Dt=  5.00000E-02 [y] snes_conv_reason:    3
  newton =   1 [      45] linear =   131 [      5920] cuts =  0 [   0]
  --> max chng: dpmx=   1.9452E+00 dtmpmx=   2.4175E-01

== TH FLOW =====================================================================
 Step     39 Time=  1.35000E+00 Dt=  5.00000E-02 [y] snes_conv_reason:    3
  newton =   1 [      46] linear =   136 [      6056] cuts =  0 [   0]
  --> max chng: dpmx=   1.9273E+00 dtmpmx=   2.3441E-01

== TH FLOW =====================================================================
 Step     40 Time=  1.40000E+00 Dt=  5.00000E-02 [y] snes_conv_reason:    3
  newton =   1 [      47] linear =   133 [      6189] cuts =  0 [   0]
  --> max chng: dpmx=   1.9117E+00 dtmpmx=   2.2814E-01

== TH FLOW =====================================================================
 Step     41 Time=  1.45000E+00 Dt=  5.00000E-02 [y] snes_conv_reason:    3
  newton =   1 [      48] linear =   134 [      6323] cuts =  0 [   0]
  --> max chng: dpmx=   1.8957E+00 dtmpmx=   2.2249E-01

== TH FLOW =====================================================================
 Step     42 Time=  1.50000E+00 Dt=  5.00000E-02 [y] snes_conv_reason:    3
  newton =   1 [      49] linear =   135 [      6458] cuts =  0 [   0]
  --> max chng: dpmx=   1.8802E+00 dtmpmx=   2.1699E-01

== TH FLOW =====================================================================
 Step     43 Time=  1.55000E+00 Dt=  5.00000E-02 [y] snes_conv_reason:    3
  newton =   1 [      50] linear =   135 [      6593] cuts =  0 [   0]
  --> max chng: dpmx=   1.8660E+00 dtmpmx=   2.1163E-01

== TH FLOW =====================================================================
 Step     44 Time=  1.60000E+00 Dt=  5.00000E-02 [y] snes_conv_reason:    3
  newton =   1 [      51] linear =   127 [      6720] cuts =  0 [   0]
  --> max chng: dpmx=   1.8513E+00 dtmpmx=   2.0642E-01

== TH FLOW =====================================================================
 Step     45 Time=  1.65000E+00 Dt=  5.00000E-02 [y] snes_conv_reason:    3
  newton =   1 [      52] linear =   136 [      6856] cuts =  0 [   0]
  --> max chng: dpmx=   1.8371E+00 dtmpmx=   2.0136E-01

== TH FLOW =====================================================================
 Step     46 Time=  1.70000E+00 Dt=  5.00000E-02 [y] snes_conv_reason:    3
  newton =   1 [      53] linear =   135 [      6991] cuts =  0 [   0]
  --> max chng: dpmx=   1.8230E+00 dtmpmx=   1.9688E-01

== TH FLOW =====================================================================
 Step     47 Time=  1.75000E+00 Dt=  5.00000E-02 [y] snes_conv_reason:    3
  newton =   1 [      54] linear =   135 [      7126] cuts =  0 [   0]
  --> max chng: dpmx=   1.8103E+00 dtmpmx=   1.9288E-01

== TH FLOW =====================================================================
 Step     48 Time=  1.80000E+00 Dt=  5.00000E-02 [y] snes_conv_reason:    3
  newton =   1 [      55] linear =   135 [      7261] cuts =  0 [   0]
  --> max chng: dpmx=   1.7959E+00 dtmpmx=   1.8893E-01

== TH FLOW =====================================================================
 Step     49 Time=  1.85000E+00 Dt=  5.00000E-02 [y] snes_conv_reason:    3
  newton =   1 [      56] linear =   135 [      7396] cuts =  0 [   0]
  --> max chng: dpmx=   1.7838E+00 dtmpmx=   1.8505E-01

== TH FLOW =====================================================================
 Step     50 Time=  1.90000E+00 Dt=  5.00000E-02 [y] snes_conv_reason:    3
  newton =   1 [      57] linear =   130 [      7526] cuts =  0 [   0]
  --> max chng: dpmx=   1.7706E+00 dtmpmx=   1.8122E-01

== TH FLOW =====================================================================
 Step     51 Time=  1.95000E+00 Dt=  5.00000E-02 [y] snes_conv_reason:    3
  newton =   1 [      58] linear =   134 [      7660] cuts =  0 [   0]
  --> max chng: dpmx=   1.7581E+00 dtmpmx=   1.7747E-01

== TH FLOW =====================================================================
 Step     52 Time=  2.00000E+00 Dt=  5.00000E-02 [y] snes_conv_reason:    3
  newton =   1 [      59] linear =   123 [      7783] cuts =  0 [   0]
  --> max chng: dpmx=   1.7460E+00 dtmpmx=   1.7409E-01

== TH FLOW =====================================================================
 Step     53 Time=  2.05000E+00 Dt=  5.00000E-02 [y] snes_conv_reason:    3
  newton =   1 [      60] linear =   136 [      7919] cuts =  0 [   0]
  --> max chng: dpmx=   1.7344E+00 dtmpmx=   1.7106E-01

== TH FLOW =====================================================================
 Step     54 Time=  2.10000E+00 Dt=  5.00000E-02 [y] snes_conv_reason:    3
  newton =   1 [      61] linear =   132 [      8051] cuts =  0 [   0]
  --> max chng: dpmx=   1.7219E+00 dtmpmx=   1.6806E-01

== TH FLOW =====================================================================
 Step     55 Time=  2.15000E+00 Dt=  5.00000E-02 [y] snes_conv_reason:    3
  newton =   1 [      62] linear =   134 [      8185] cuts =  0 [   0]
  --> max chng: dpmx=   1.7112E+00 dtmpmx=   1.6508E-01

== TH FLOW =====================================================================
 Step     56 Time=  2.20000E+00 Dt=  5.00000E-02 [y] snes_conv_reason:    3
  newton =   1 [      63] linear =   134 [      8319] cuts =  0 [   0]
  --> max chng: dpmx=   1.6989E+00 dtmpmx=   1.6214E-01

== TH FLOW =====================================================================
 Step     57 Time=  2.25000E+00 Dt=  5.00000E-02 [y] snes_conv_reason:    3
  newton =   1 [      64] linear =   135 [      8454] cuts =  0 [   0]
  --> max chng: dpmx=   1.6877E+00 dtmpmx=   1.5922E-01

== TH FLOW =====================================================================
 Step     58 Time=  2.30000E+00 Dt=  5.00000E-02 [y] snes_conv_reason:    3
  newton =   1 [      65] linear =   133 [      8587] cuts =  0 [   0]
  --> max chng: dpmx=   1.6762E+00 dtmpmx=   1.5656E-01

== TH FLOW =====================================================================
 Step     59 Time=  2.35000E+00 Dt=  5.00000E-02 [y] snes_conv_reason:    3
  newton =   1 [      66] linear =   134 [      8721] cuts =  0 [   0]
  --> max chng: dpmx=   1.6650E+00 dtmpmx=   1.5418E-01

== TH FLOW =====================================================================
 Step     60 Time=  2.40000E+00 Dt=  5.00000E-02 [y] snes_conv_reason:    3
  newton =   1 [      67] linear =   134 [      8855] cuts =  0 [   0]
  --> max chng: dpmx=   1.6541E+00 dtmpmx=   1.5180E-01

== TH FLOW =====================================================================
 Step     61 Time=  2.45000E+00 Dt=  5.00000E-02 [y] snes_conv_reason:    3
  newton =   1 [      68] linear =   134 [      8989] cuts =  0 [   0]
  --> max chng: dpmx=   1.6428E+00 dtmpmx=   1.4943E-01

== TH FLOW =====================================================================
 Step     62 Time=  2.50000E+00 Dt=  5.00000E-02 [y] snes_conv_reason:    3
  newton =   1 [      69] linear =    98 [      9087] cuts =  0 [   0]
  --> max chng: dpmx=   1.6316E+00 dtmpmx=   1.4707E-01

== TH FLOW =====================================================================
 Step     63 Time=  2.55000E+00 Dt=  5.00000E-02 [y] snes_conv_reason:    3
  newton =   1 [      70] linear =   134 [      9221] cuts =  0 [   0]
  --> max chng: dpmx=   1.6218E+00 dtmpmx=   1.4473E-01

== TH FLOW =====================================================================
 Step     64 Time=  2.60000E+00 Dt=  5.00000E-02 [y] snes_conv_reason:    3
  newton =   1 [      71] linear =   130 [      9351] cuts =  0 [   0]
  --> max chng: dpmx=   1.6101E+00 dtmpmx=   1.4257E-01

== TH FLOW =====================================================================
 Step     65 Time=  2.65000E+00 Dt=  5.00000E-02 [y] snes_conv_reason:    3
  newton =   1 [      72] linear =   132 [      9483] cuts =  0 [   0]
  --> max chng: dpmx=   1.5999E+00 dtmpmx=   1.4064E-01

== TH FLOW =====================================================================
 Step     66 Time=  2.70000E+00 Dt=  5.00000E-02 [y] snes_conv_reason:    3
  newton =   1 [      73] linear =   135 [      9618] cuts =  0 [   0]
  --> max chng: dpmx=   1.5894E+00 dtmpmx=   1.3870E-01

== TH FLOW =====================================================================
 Step     67 Time=  2.75000E+00 Dt=  5.00000E-02 [y] snes_conv_reason:    3
  newton =   1 [      74] linear =   136 [      9754] cuts =  0 [   0]
  --> max chng: dpmx=   1.5789E+00 dtmpmx=   1.3676E-01

== TH FLOW =====================================================================
 Step     68 Time=  2.80000E+00 Dt=  5.00000E-02 [y] snes_conv_reason:    3
  newton =   1 [      75] linear =   135 [      9889] cuts =  0 [   0]
  --> max chng: dpmx=   1.5685E+00 dtmpmx=   1.3482E-01

== TH FLOW =====================================================================
 Step     69 Time=  2.85000E+00 Dt=  5.00000E-02 [y] snes_conv_reason:    3
  newton =   1 [      76] linear =   130 [     10019] cuts =  0 [   0]
  --> max chng: dpmx=   1.5576E+00 dtmpmx=   1.3289E-01

== TH FLOW =====================================================================
 Step     70 Time=  2.90000E+00 Dt=  5.00000E-02 [y] snes_conv_reason:    3
  newton =   1 [      77] linear =   132 [     10151] cuts =  0 [   0]
  --> max chng: dpmx=   1.5479E+00 dtmpmx=   1.3111E-01

== TH FLOW =====================================================================
 Step     71 Time=  2.95000E+00 Dt=  5.00000E-02 [y] snes_conv_reason:    3
  newton =   1 [      78] linear =   131 [     10282] cuts =  0 [   0]
  --> max chng: dpmx=   1.5380E+00 dtmpmx=   1.2950E-01

== TH FLOW =====================================================================
 Step     72 Time=  3.00000E+00 Dt=  5.00000E-02 [y] snes_conv_reason:    3
  newton =   1 [      79] linear =   131 [     10413] cuts =  0 [   0]
  --> max chng: dpmx=   1.5273E+00 dtmpmx=   1.2788E-01

== TH FLOW =====================================================================
 Step     73 Time=  3.05000E+00 Dt=  5.00000E-02 [y] snes_conv_reason:    3
  newton =   1 [      80] linear =   125 [     10538] cuts =  0 [   0]
  --> max chng: dpmx=   1.5169E+00 dtmpmx=   1.2626E-01

== TH FLOW =====================================================================
 Step     74 Time=  3.10000E+00 Dt=  5.00000E-02 [y] snes_conv_reason:    3
  newton =   1 [      81] linear =   134 [     10672] cuts =  0 [   0]
  --> max chng: dpmx=   1.5070E+00 dtmpmx=   1.2464E-01

== TH FLOW =====================================================================
 Step     75 Time=  3.15000E+00 Dt=  5.00000E-02 [y] snes_conv_reason:    3
  newton =   1 [      82] linear =   126 [     10798] cuts =  0 [   0]
  --> max chng: dpmx=   1.4972E+00 dtmpmx=   1.2301E-01

== TH FLOW =====================================================================
 Step     76 Time=  3.20000E+00 Dt=  5.00000E-02 [y] snes_conv_reason:    3
  newton =   1 [      83] linear =   130 [     10928] cuts =  0 [   0]
  --> max chng: dpmx=   1.4874E+00 dtmpmx=   1.2151E-01

== TH FLOW =====================================================================
 Step     77 Time=  3.25000E+00 Dt=  5.00000E-02 [y] snes_conv_reason:    3
  newton =   1 [      84] linear =   132 [     11060] cuts =  0 [   0]
  --> max chng: dpmx=   1.4767E+00 dtmpmx=   1.2015E-01

== TH FLOW =====================================================================
 Step     78 Time=  3.30000E+00 Dt=  5.00000E-02 [y] snes_conv_reason:    3
  newton =   1 [      85] linear =   133 [     11193] cuts =  0 [   0]
  --> max chng: dpmx=   1.4676E+00 dtmpmx=   1.1878E-01

== TH FLOW =====================================================================
 Step     79 Time=  3.35000E+00 Dt=  5.00000E-02 [y] snes_conv_reason:    3
  newton =   1 [      86] linear =   137 [     11330] cuts =  0 [   0]
  --> max chng: dpmx=   1.4576E+00 dtmpmx=   1.1740E-01

== TH FLOW =====================================================================
 Step     80 Time=  3.40000E+00 Dt=  5.00000E-02 [y] snes_conv_reason:    3
  newton =   1 [      87] linear =   131 [     11461] cuts =  0 [   0]
  --> max chng: dpmx=   1.4474E+00 dtmpmx=   1.1601E-01

== TH FLOW =====================================================================
 Step     81 Time=  3.45000E+00 Dt=  5.00000E-02 [y] snes_conv_reason:    3
  newton =   1 [      88] linear =   134 [     11595] cuts =  0 [   0]
  --> max chng: dpmx=   1.4384E+00 dtmpmx=   1.1462E-01

== TH FLOW =====================================================================
 Step     82 Time=  3.50000E+00 Dt=  5.00000E-02 [y] snes_conv_reason:    3
  newton =   1 [      89] linear =   125 [     11720] cuts =  0 [   0]
  --> max chng: dpmx=   1.4283E+00 dtmpmx=   1.1334E-01

== TH FLOW =====================================================================
 Step     83 Time=  3.55000E+00 Dt=  5.00000E-02 [y] snes_conv_reason:    3
  newton =   1 [      90] linear =   134 [     11854] cuts =  0 [   0]
  --> max chng: dpmx=   1.4181E+00 dtmpmx=   1.1217E-01

== TH FLOW =====================================================================
 Step     84 Time=  3.60000E+00 Dt=  5.00000E-02 [y] snes_conv_reason:    3
  newton =   1 [      91] linear =   127 [     11981] cuts =  0 [   0]
  --> max chng: dpmx=   1.4091E+00 dtmpmx=   1.1099E-01

== TH FLOW =====================================================================
 Step     85 Time=  3.65000E+00 Dt=  5.00000E-02 [y] snes_conv_reason:    3
  newton =   1 [      92] linear =   131 [     12112] cuts =  0 [   0]
  --> max chng: dpmx=   1.3994E+00 dtmpmx=   1.0980E-01

== TH FLOW =====================================================================
 Step     86 Time=  3.70000E+00 Dt=  5.00000E-02 [y] snes_conv_reason:    3
  newton =   1 [      93] linear =   131 [     12243] cuts =  0 [   0]
  --> max chng: dpmx=   1.3898E+00 dtmpmx=   1.0860E-01

== TH FLOW =====================================================================
 Step     87 Time=  3.75000E+00 Dt=  5.00000E-02 [y] snes_conv_reason:    3
  newton =   1 [      94] linear =   130 [     12373] cuts =  0 [   0]
  --> max chng: dpmx=   1.3799E+00 dtmpmx=   1.0739E-01

== TH FLOW =====================================================================
 Step     88 Time=  3.80000E+00 Dt=  5.00000E-02 [y] snes_conv_reason:    3
  newton =   1 [      95] linear =   131 [     12504] cuts =  0 [   0]
  --> max chng: dpmx=   1.3708E+00 dtmpmx=   1.0628E-01

== TH FLOW =====================================================================
 Step     89 Time=  3.85000E+00 Dt=  5.00000E-02 [y] snes_conv_reason:    3
  newton =   1 [      96] linear =   130 [     12634] cuts =  0 [   0]
  --> max chng: dpmx=   1.3609E+00 dtmpmx=   1.0526E-01

== TH FLOW =====================================================================
 Step     90 Time=  3.90000E+00 Dt=  5.00000E-02 [y] snes_conv_reason:    3
  newton =   1 [      97] linear =   128 [     12762] cuts =  0 [   0]
  --> max chng: dpmx=   1.3517E+00 dtmpmx=   1.0423E-01

== TH FLOW =====================================================================
 Step     91 Time=  3.95000E+00 Dt=  5.00000E-02 [y] snes_conv_reason:    3
  newton =   1 [      98] linear =   135 [     12897] cuts =  0 [   0]
  --> max chng: dpmx=   1.3418E+00 dtmpmx=   1.0320E-01

== TH FLOW =====================================================================
 Step     92 Time=  4.00000E+00 Dt=  5.00000E-02 [y] snes_conv_reason:    3
  newton =   1 [      99] linear =   134 [     13031] cuts =  0 [   0]
  --> max chng: dpmx=   1.3323E+00 dtmpmx=   1.0215E-01

== TH FLOW =====================================================================
 Step     93 Time=  4.05000E+00 Dt=  5.00000E-02 [y] snes_conv_reason:    3
  newton =   1 [     100] linear =   133 [     13164] cuts =  0 [   0]
  --> max chng: dpmx=   1.3237E+00 dtmpmx=   1.0109E-01

== TH FLOW =====================================================================
 Step     94 Time=  4.10000E+00 Dt=  5.00000E-02 [y] snes_conv_reason:    3
  newton =   1 [     101] linear =   132 [     13296] cuts =  0 [   0]
  --> max chng: dpmx=   1.3137E+00 dtmpmx=   1.0012E-01

== TH FLOW =====================================================================
 Step     95 Time=  4.15000E+00 Dt=  5.00000E-02 [y] snes_conv_reason:    3
  newton =   1 [     102] linear =   131 [     13427] cuts =  0 [   0]
  --> max chng: dpmx=   1.3043E+00 dtmpmx=   9.9226E-02

== TH FLOW =====================================================================
 Step     96 Time=  4.20000E+00 Dt=  5.00000E-02 [y] snes_conv_reason:    3
  newton =   1 [     103] linear =   128 [     13555] cuts =  0 [   0]
  --> max chng: dpmx=   1.2952E+00 dtmpmx=   9.8319E-02

== TH FLOW =====================================================================
 Step     97 Time=  4.25000E+00 Dt=  5.00000E-02 [y] snes_conv_reason:    3
  newton =   1 [     104] linear =   131 [     13686] cuts =  0 [   0]
  --> max chng: dpmx=   1.2863E+00 dtmpmx=   9.7403E-02

== TH FLOW =====================================================================
 Step     98 Time=  4.30000E+00 Dt=  5.00000E-02 [y] snes_conv_reason:    3
  newton =   1 [     105] linear =   125 [     13811] cuts =  0 [   0]
  --> max chng: dpmx=   1.2766E+00 dtmpmx=   9.6479E-02

== TH FLOW =====================================================================
 Step     99 Time=  4.35000E+00 Dt=  5.00000E-02 [y] snes_conv_reason:    3
  newton =   1 [     106] linear =   136 [     13947] cuts =  0 [   0]
  --> max chng: dpmx=   1.2674E+00 dtmpmx=   9.5547E-02

== TH FLOW =====================================================================
 Step    100 Time=  4.40000E+00 Dt=  5.00000E-02 [y] snes_conv_reason:    3
  newton =   1 [     107] linear =   131 [     14078] cuts =  0 [   0]
  --> max chng: dpmx=   1.2584E+00 dtmpmx=   9.4688E-02

== TH FLOW =====================================================================
 Step    101 Time=  4.45000E+00 Dt=  5.00000E-02 [y] snes_conv_reason:    3
  newton =   1 [     108] linear =   137 [     14215] cuts =  0 [   0]
  --> max chng: dpmx=   1.2489E+00 dtmpmx=   9.3893E-02

== TH FLOW =====================================================================
 Step    102 Time=  4.50000E+00 Dt=  5.00000E-02 [y] snes_conv_reason:    3
  newton =   1 [     109] linear =   136 [     14351] cuts =  0 [   0]
  --> max chng: dpmx=   1.2399E+00 dtmpmx=   9.3088E-02

== TH FLOW =====================================================================
 Step    103 Time=  4.55000E+00 Dt=  5.00000E-02 [y] snes_conv_reason:    3
  newton =   1 [     110] linear =   141 [     14492] cuts =  0 [   0]
  --> max chng: dpmx=   1.2307E+00 dtmpmx=   9.2273E-02

== TH FLOW =====================================================================
 Step    104 Time=  4.60000E+00 Dt=  5.00000E-02 [y] snes_conv_reason:    3
  newton =   1 [     111] linear =   133 [     14625] cuts =  0 [   0]
  --> max chng: dpmx=   1.2215E+00 dtmpmx=   9.1450E-02

== TH FLOW =====================================================================
 Step    105 Time=  4.65000E+00 Dt=  5.00000E-02 [y] snes_conv_reason:    3
  newton =   1 [     112] linear =   136 [     14761] cuts =  0 [   0]
  --> max chng: dpmx=   1.2125E+00 dtmpmx=   9.0619E-02

== TH FLOW =====================================================================
 Step    106 Time=  4.70000E+00 Dt=  5.00000E-02 [y] snes_conv_reason:    3
  newton =   1 [     113] linear =   138 [     14899] cuts =  0 [   0]
  --> max chng: dpmx=   1.2032E+00 dtmpmx=   8.9855E-02

== TH FLOW =====================================================================
 Step    107 Time=  4.75000E+00 Dt=  5.00000E-02 [y] snes_conv_reason:    3
  newton =   1 [     114] linear =   134 [     15033] cuts =  0 [   0]
  --> max chng: dpmx=   1.1941E+00 dtmpmx=   8.9145E-02

== TH FLOW =====================================================================
 Step    108 Time=  4.80000E+00 Dt=  5.00000E-02 [y] snes_conv_reason:    3
  newton =   1 [     115] linear =   135 [     15168] cuts =  0 [   0]
  --> max chng: dpmx=   1.1850E+00 dtmpmx=   8.8424E-02

== TH FLOW =====================================================================
 Step    109 Time=  4.85000E+00 Dt=  5.00000E-02 [y] snes_conv_reason:    3
  newton =   1 [     116] linear =   134 [     15302] cuts =  0 [   0]
  --> max chng: dpmx=   1.1761E+00 dtmpmx=   8.7694E-02

== TH FLOW =====================================================================
 Step    110 Time=  4.90000E+00 Dt=  5.00000E-02 [y] snes_conv_reason:    3
  newton =   1 [     117] linear =   134 [     15436] cuts =  0 [   0]
  --> max chng: dpmx=   1.1667E+00 dtmpmx=   8.6956E-02

== TH FLOW =====================================================================
 Step    111 Time=  4.95000E+00 Dt=  5.00000E-02 [y] snes_conv_reason:    3
  newton =   1 [     118] linear =   133 [     15569] cuts =  0 [   0]
  --> max chng: dpmx=   1.1577E+00 dtmpmx=   8.6210E-02

== TH FLOW =====================================================================
 Step    112 Time=  5.00000E+00 Dt=  5.00000E-02 [y] snes_conv_reason:    3
  newton =   1 [     119] linear =   124 [     15693] cuts =  0 [   0]
  --> max chng: dpmx=   1.1486E+00 dtmpmx=   8.5525E-02

== TH FLOW =====================================================================
 Step    113 Time=  5.05000E+00 Dt=  5.00000E-02 [y] snes_conv_reason:    3
  newton =   1 [     120] linear =   133 [     15826] cuts =  0 [   0]
  --> max chng: dpmx=   1.1396E+00 dtmpmx=   8.4886E-02

== TH FLOW =====================================================================
 Step    114 Time=  5.10000E+00 Dt=  5.00000E-02 [y] snes_conv_reason:    3
  newton =   1 [     121] linear =   129 [     15955] cuts =  0 [   0]
  --> max chng: dpmx=   1.1303E+00 dtmpmx=   8.4236E-02

== TH FLOW =====================================================================
 Step    115 Time=  5.15000E+00 Dt=  5.00000E-02 [y] snes_conv_reason:    3
  newton =   1 [     122] linear =   134 [     16089] cuts =  0 [   0]
  --> max chng: dpmx=   1.1217E+00 dtmpmx=   8.3578E-02

== TH FLOW =====================================================================
 Step    116 Time=  5.20000E+00 Dt=  5.00000E-02 [y] snes_conv_reason:    3
  newton =   1 [     123] linear =   131 [     16220] cuts =  0 [   0]
  --> max chng: dpmx=   1.1126E+00 dtmpmx=   8.2911E-02

== TH FLOW =====================================================================
 Step    117 Time=  5.25000E+00 Dt=  5.00000E-02 [y] snes_conv_reason:    3
  newton =   1 [     124] linear =   131 [     16351] cuts =  0 [   0]
  --> max chng: dpmx=   1.1038E+00 dtmpmx=   8.2238E-02

== TH FLOW =====================================================================
 Step    118 Time=  5.30000E+00 Dt=  5.00000E-02 [y] snes_conv_reason:    3
  newton =   1 [     125] linear =   130 [     16481] cuts =  0 [   0]
  --> max chng: dpmx=   1.0948E+00 dtmpmx=   8.1620E-02

== TH FLOW =====================================================================
 Step    119 Time=  5.35000E+00 Dt=  5.00000E-02 [y] snes_conv_reason:    3
  newton =   1 [     126] linear =   131 [     16612] cuts =  0 [   0]
  --> max chng: dpmx=   1.0858E+00 dtmpmx=   8.1041E-02

== TH FLOW =====================================================================
 Step    120 Time=  5.40000E+00 Dt=  5.00000E-02 [y] snes_conv_reason:    3
  newton =   1 [     127] linear =   131 [     16743] cuts =  0 [   0]
  --> max chng: dpmx=   1.0771E+00 dtmpmx=   8.0452E-02

== TH FLOW =====================================================================
 Step    121 Time=  5.45000E+00 Dt=  5.00000E-02 [y] snes_conv_reason:    3
  newton =   1 [     128] linear =   133 [     16876] cuts =  0 [   0]
  --> max chng: dpmx=   1.0682E+00 dtmpmx=   7.9855E-02

== TH FLOW =====================================================================
 Step    122 Time=  5.50000E+00 Dt=  5.00000E-02 [y] snes_conv_reason:    3
  newton =   1 [     129] linear =   133 [     17009] cuts =  0 [   0]
  --> max chng: dpmx=   1.0590E+00 dtmpmx=   7.9250E-02

== TH FLOW =====================================================================
 Step    123 Time=  5.55000E+00 Dt=  5.00000E-02 [y] snes_conv_reason:    3
  newton =   1 [     130] linear =   129 [     17138] cuts =  0 [   0]
  --> max chng: dpmx=   1.0498E+00 dtmpmx=   7.8638E-02

== TH FLOW =====================================================================
 Step    124 Time=  5.60000E+00 Dt=  5.00000E-02 [y] snes_conv_reason:    3
  newton =   1 [     131] linear =   134 [     17272] cuts =  0 [   0]
  --> max chng: dpmx=   1.0415E+00 dtmpmx=   7.8078E-02

== TH FLOW =====================================================================
 Step    125 Time=  5.65000E+00 Dt=  5.00000E-02 [y] snes_conv_reason:    3
  newton =   1 [     132] linear =   133 [     17405] cuts =  0 [   0]
  --> max chng: dpmx=   1.0324E+00 dtmpmx=   7.7551E-02

== TH FLOW =====================================================================
 Step    126 Time=  5.70000E+00 Dt=  5.00000E-02 [y] snes_conv_reason:    3
  newton =   1 [     133] linear =   126 [     17531] cuts =  0 [   0]
  --> max chng: dpmx=   1.0234E+00 dtmpmx=   7.7014E-02

== TH FLOW =====================================================================
 Step    127 Time=  5.75000E+00 Dt=  5.00000E-02 [y] snes_conv_reason:    3
  newton =   1 [     134] linear =   130 [     17661] cuts =  0 [   0]
  --> max chng: dpmx=   1.0144E+00 dtmpmx=   7.6470E-02

== TH FLOW =====================================================================
 Step    128 Time=  5.80000E+00 Dt=  5.00000E-02 [y] snes_conv_reason:    3
  newton =   1 [     135] linear =   129 [     17790] cuts =  0 [   0]
  --> max chng: dpmx=   1.0056E+00 dtmpmx=   7.5918E-02

== TH FLOW =====================================================================
 Step    129 Time=  5.85000E+00 Dt=  5.00000E-02 [y] snes_conv_reason:   11
  newton =   1 [     136] linear =   128 [     17918] cuts =  0 [   0]
  --> max chng: dpmx=   9.9692E-01 dtmpmx=   7.5359E-02

== TH FLOW =====================================================================
 Step    130 Time=  5.90000E+00 Dt=  5.00000E-02 [y] snes_conv_reason:   11
  newton =   1 [     137] linear =   130 [     18048] cuts =  0 [   0]
  --> max chng: dpmx=   9.8779E-01 dtmpmx=   7.4849E-02

== TH FLOW =====================================================================
 Step    131 Time=  5.95000E+00 Dt=  5.00000E-02 [y] snes_conv_reason:   11
  newton =   1 [     138] linear =   130 [     18178] cuts =  0 [   0]
  --> max chng: dpmx=   9.7869E-01 dtmpmx=   7.4366E-02

== TH FLOW =====================================================================
 Step    132 Time=  6.00000E+00 Dt=  5.00000E-02 [y] snes_conv_reason:   11
  newton =   1 [     139] linear =   132 [     18310] cuts =  0 [   0]
  --> max chng: dpmx=   9.7075E-01 dtmpmx=   7.3875E-02

== TH FLOW =====================================================================
 Step    133 Time=  6.05000E+00 Dt=  5.00000E-02 [y] snes_conv_reason:   11
  newton =   1 [     140] linear =   131 [     18441] cuts =  0 [   0]
  --> max chng: dpmx=   9.6143E-01 dtmpmx=   7.3377E-02

== TH FLOW =====================================================================
 Step    134 Time=  6.10000E+00 Dt=  5.00000E-02 [y] snes_conv_reason:   11
  newton =   1 [     141] linear =   132 [     18573] cuts =  0 [   0]
  --> max chng: dpmx=   9.5286E-01 dtmpmx=   7.2871E-02

== TH FLOW =====================================================================
 Step    135 Time=  6.15000E+00 Dt=  5.00000E-02 [y] snes_conv_reason:   11
  newton =   1 [     142] linear =   131 [     18704] cuts =  0 [   0]
  --> max chng: dpmx=   9.4354E-01 dtmpmx=   7.2358E-02

== TH FLOW =====================================================================
 Step    136 Time=  6.20000E+00 Dt=  5.00000E-02 [y] snes_conv_reason:   11
  newton =   1 [     143] linear =   132 [     18836] cuts =  0 [   0]
  --> max chng: dpmx=   9.3810E-01 dtmpmx=   7.1891E-02

== TH FLOW =====================================================================
 Step    137 Time=  6.25000E+00 Dt=  5.00000E-02 [y] snes_conv_reason:   11
  newton =   1 [     144] linear =   126 [     18962] cuts =  0 [   0]
  --> max chng: dpmx=   9.4482E-01 dtmpmx=   7.1447E-02

== TH FLOW =====================================================================
 Step    138 Time=  6.30000E+00 Dt=  5.00000E-02 [y] snes_conv_reason:   11
  newton =   1 [     145] linear =   132 [     19094] cuts =  0 [   0]
  --> max chng: dpmx=   9.5167E-01 dtmpmx=   7.0996E-02

== TH FLOW =====================================================================
 Step    139 Time=  6.35000E+00 Dt=  5.00000E-02 [y] snes_conv_reason:   11
  newton =   1 [     146] linear =   123 [     19217] cuts =  0 [   0]
  --> max chng: dpmx=   9.5788E-01 dtmpmx=   7.0537E-02

== TH FLOW =====================================================================
 Step    140 Time=  6.40000E+00 Dt=  5.00000E-02 [y] snes_conv_reason:   11
  newton =   1 [     147] linear =   125 [     19342] cuts =  0 [   0]
  --> max chng: dpmx=   9.6469E-01 dtmpmx=   7.0072E-02

== TH FLOW =====================================================================
 Step    141 Time=  6.45000E+00 Dt=  5.00000E-02 [y] snes_conv_reason:   11
  newton =   1 [     148] linear =   128 [     19470] cuts =  0 [   0]
  --> max chng: dpmx=   9.7138E-01 dtmpmx=   6.9600E-02

== TH FLOW =====================================================================
 Step    142 Time=  6.50000E+00 Dt=  5.00000E-02 [y] snes_conv_reason:   11
  newton =   1 [     149] linear =   131 [     19601] cuts =  0 [   0]
  --> max chng: dpmx=   9.7799E-01 dtmpmx=   6.9170E-02

== TH FLOW =====================================================================
 Step    143 Time=  6.55000E+00 Dt=  5.00000E-02 [y] snes_conv_reason:   11
  newton =   1 [     150] linear =   134 [     19735] cuts =  0 [   0]
  --> max chng: dpmx=   9.8478E-01 dtmpmx=   6.8761E-02

== TH FLOW =====================================================================
 Step    144 Time=  6.60000E+00 Dt=  5.00000E-02 [y] snes_conv_reason:   11
  newton =   1 [     151] linear =   134 [     19869] cuts =  0 [   0]
  --> max chng: dpmx=   9.9134E-01 dtmpmx=   6.8345E-02

== TH FLOW =====================================================================
 Step    145 Time=  6.65000E+00 Dt=  5.00000E-02 [y] snes_conv_reason:   11
  newton =   1 [     152] linear =   137 [     20006] cuts =  0 [   0]
  --> max chng: dpmx=   9.9816E-01 dtmpmx=   6.7921E-02

== TH FLOW =====================================================================
 Step    146 Time=  6.70000E+00 Dt=  5.00000E-02 [y] snes_conv_reason:    3
  newton =   1 [     153] linear =   135 [     20141] cuts =  0 [   0]
  --> max chng: dpmx=   1.0049E+00 dtmpmx=   6.7492E-02

== TH FLOW =====================================================================
 Step    147 Time=  6.75000E+00 Dt=  5.00000E-02 [y] snes_conv_reason:    3
  newton =   1 [     154] linear =   128 [     20269] cuts =  0 [   0]
  --> max chng: dpmx=   1.0114E+00 dtmpmx=   6.7056E-02

== TH FLOW =====================================================================
 Step    148 Time=  6.80000E+00 Dt=  5.00000E-02 [y] snes_conv_reason:    3
  newton =   1 [     155] linear =   130 [     20399] cuts =  0 [   0]
  --> max chng: dpmx=   1.0182E+00 dtmpmx=   6.6658E-02

== TH FLOW =====================================================================
 Step    149 Time=  6.85000E+00 Dt=  5.00000E-02 [y] snes_conv_reason:    3
  newton =   1 [     156] linear =   133 [     20532] cuts =  0 [   0]
  --> max chng: dpmx=   1.0250E+00 dtmpmx=   6.6280E-02

== TH FLOW =====================================================================
 Step    150 Time=  6.90000E+00 Dt=  5.00000E-02 [y] snes_conv_reason:    3
  newton =   1 [     157] linear =   132 [     20664] cuts =  0 [   0]
  --> max chng: dpmx=   1.0318E+00 dtmpmx=   6.5894E-02

== TH FLOW =====================================================================
 Step    151 Time=  6.95000E+00 Dt=  5.00000E-02 [y] snes_conv_reason:    3
  newton =   1 [     158] linear =   130 [     20794] cuts =  0 [   0]
  --> max chng: dpmx=   1.0383E+00 dtmpmx=   6.5502E-02

== TH FLOW =====================================================================
 Step    152 Time=  7.00000E+00 Dt=  5.00000E-02 [y] snes_conv_reason:    3
  newton =   1 [     159] linear =   134 [     20928] cuts =  0 [   0]
  --> max chng: dpmx=   1.0451E+00 dtmpmx=   6.5104E-02

== TH FLOW =====================================================================
 Step    153 Time=  7.05000E+00 Dt=  5.00000E-02 [y] snes_conv_reason:    3
  newton =   1 [     160] linear =   134 [     21062] cuts =  0 [   0]
  --> max chng: dpmx=   1.0520E+00 dtmpmx=   6.4700E-02

== TH FLOW =====================================================================
 Step    154 Time=  7.10000E+00 Dt=  5.00000E-02 [y] snes_conv_reason:    3
  newton =   1 [     161] linear =   134 [     21196] cuts =  0 [   0]
  --> max chng: dpmx=   1.0588E+00 dtmpmx=   6.4331E-02

== TH FLOW =====================================================================
 Step    155 Time=  7.15000E+00 Dt=  5.00000E-02 [y] snes_conv_reason:    3
  newton =   1 [     162] linear =   139 [     21335] cuts =  0 [   0]
  --> max chng: dpmx=   1.0655E+00 dtmpmx=   6.3980E-02

== TH FLOW =====================================================================
 Step    156 Time=  7.20000E+00 Dt=  5.00000E-02 [y] snes_conv_reason:    3
  newton =   1 [     163] linear =   135 [     21470] cuts =  0 [   0]
  --> max chng: dpmx=   1.0722E+00 dtmpmx=   6.3622E-02

== TH FLOW =====================================================================
 Step    157 Time=  7.25000E+00 Dt=  5.00000E-02 [y] snes_conv_reason:    3
  newton =   1 [     164] linear =   133 [     21603] cuts =  0 [   0]
  --> max chng: dpmx=   1.0790E+00 dtmpmx=   6.3257E-02

== TH FLOW =====================================================================
 Step    158 Time=  7.30000E+00 Dt=  5.00000E-02 [y] snes_conv_reason:    3
  newton =   1 [     165] linear =   134 [     21737] cuts =  0 [   0]
  --> max chng: dpmx=   1.0860E+00 dtmpmx=   6.2887E-02

== TH FLOW =====================================================================
 Step    159 Time=  7.35000E+00 Dt=  5.00000E-02 [y] snes_conv_reason:    3
  newton =   1 [     166] linear =   134 [     21871] cuts =  0 [   0]
  --> max chng: dpmx=   1.0928E+00 dtmpmx=   6.2511E-02

== TH FLOW =====================================================================
 Step    160 Time=  7.40000E+00 Dt=  5.00000E-02 [y] snes_conv_reason:    3
  newton =   1 [     167] linear =   132 [     22003] cuts =  0 [   0]
  --> max chng: dpmx=   1.0993E+00 dtmpmx=   6.2169E-02

== TH FLOW =====================================================================
 Step    161 Time=  7.45000E+00 Dt=  5.00000E-02 [y] snes_conv_reason:    3
  newton =   1 [     168] linear =   136 [     22139] cuts =  0 [   0]
  --> max chng: dpmx=   1.1064E+00 dtmpmx=   6.1841E-02

== TH FLOW =====================================================================
 Step    162 Time=  7.50000E+00 Dt=  5.00000E-02 [y] snes_conv_reason:    3
  newton =   1 [     169] linear =   136 [     22275] cuts =  0 [   0]
  --> max chng: dpmx=   1.1133E+00 dtmpmx=   6.1508E-02

== TH FLOW =====================================================================
 Step    163 Time=  7.55000E+00 Dt=  5.00000E-02 [y] snes_conv_reason:    3
  newton =   1 [     170] linear =   136 [     22411] cuts =  0 [   0]
  --> max chng: dpmx=   1.1200E+00 dtmpmx=   6.1168E-02

== TH FLOW =====================================================================
 Step    164 Time=  7.60000E+00 Dt=  5.00000E-02 [y] snes_conv_reason:    3
  newton =   1 [     171] linear =   123 [     22534] cuts =  0 [   0]
  --> max chng: dpmx=   1.1265E+00 dtmpmx=   6.0823E-02

== TH FLOW =====================================================================
 Step    165 Time=  7.65000E+00 Dt=  5.00000E-02 [y] snes_conv_reason:    3
  newton =   1 [     172] linear =   133 [     22667] cuts =  0 [   0]
  --> max chng: dpmx=   1.1338E+00 dtmpmx=   6.0473E-02

== TH FLOW =====================================================================
 Step    166 Time=  7.70000E+00 Dt=  5.00000E-02 [y] snes_conv_reason:    3
  newton =   1 [     173] linear =   138 [     22805] cuts =  0 [   0]
  --> max chng: dpmx=   1.1407E+00 dtmpmx=   6.0153E-02

== TH FLOW =====================================================================
 Step    167 Time=  7.75000E+00 Dt=  5.00000E-02 [y] snes_conv_reason:    3
  newton =   1 [     174] linear =   134 [     22939] cuts =  0 [   0]
  --> max chng: dpmx=   1.1474E+00 dtmpmx=   5.9848E-02

== TH FLOW =====================================================================
 Step    168 Time=  7.80000E+00 Dt=  5.00000E-02 [y] snes_conv_reason:    3
  newton =   1 [     175] linear =   126 [     23065] cuts =  0 [   0]
  --> max chng: dpmx=   1.1541E+00 dtmpmx=   5.9536E-02

== TH FLOW =====================================================================
 Step    169 Time=  7.85000E+00 Dt=  5.00000E-02 [y] snes_conv_reason:    3
  newton =   1 [     176] linear =   133 [     23198] cuts =  0 [   0]
  --> max chng: dpmx=   1.1614E+00 dtmpmx=   5.9219E-02

== TH FLOW =====================================================================
 Step    170 Time=  7.90000E+00 Dt=  5.00000E-02 [y] snes_conv_reason:    3
  newton =   1 [     177] linear =   132 [     23330] cuts =  0 [   0]
  --> max chng: dpmx=   1.1680E+00 dtmpmx=   5.8896E-02

== TH FLOW =====================================================================
 Step    171 Time=  7.95000E+00 Dt=  5.00000E-02 [y] snes_conv_reason:    3
  newton =   1 [     178] linear =   129 [     23459] cuts =  0 [   0]
  --> max chng: dpmx=   1.1749E+00 dtmpmx=   5.8569E-02

== TH FLOW =====================================================================
 Step    172 Time=  8.00000E+00 Dt=  5.00000E-02 [y] snes_conv_reason:    3
  newton =   1 [     179] linear =   130 [     23589] cuts =  0 [   0]
  --> max chng: dpmx=   1.1819E+00 dtmpmx=   5.8270E-02

== TH FLOW =====================================================================
 Step    173 Time=  8.05000E+00 Dt=  5.00000E-02 [y] snes_conv_reason:    3
  newton =   1 [     180] linear =   129 [     23718] cuts =  0 [   0]
  --> max chng: dpmx=   1.1890E+00 dtmpmx=   5.7984E-02

== TH FLOW =====================================================================
 Step    174 Time=  8.10000E+00 Dt=  5.00000E-02 [y] snes_conv_reason:    3
  newton =   1 [     181] linear =   124 [     23842] cuts =  0 [   0]
  --> max chng: dpmx=   1.1956E+00 dtmpmx=   5.7692E-02

== TH FLOW =====================================================================
 Step    175 Time=  8.15000E+00 Dt=  5.00000E-02 [y] snes_conv_reason:    3
  newton =   1 [     182] linear =   131 [     23973] cuts =  0 [   0]
  --> max chng: dpmx=   1.2027E+00 dtmpmx=   5.7395E-02

== TH FLOW =====================================================================
 Step    176 Time=  8.20000E+00 Dt=  5.00000E-02 [y] snes_conv_reason:    3
  newton =   1 [     183] linear =   130 [     24103] cuts =  0 [   0]
  --> max chng: dpmx=   1.2096E+00 dtmpmx=   5.7093E-02

== TH FLOW =====================================================================
 Step    177 Time=  8.25000E+00 Dt=  5.00000E-02 [y] snes_conv_reason:    3
  newton =   1 [     184] linear =   131 [     24234] cuts =  0 [   0]
  --> max chng: dpmx=   1.2162E+00 dtmpmx=   5.6786E-02

== TH FLOW =====================================================================
 Step    178 Time=  8.30000E+00 Dt=  5.00000E-02 [y] snes_conv_reason:    3
  newton =   1 [     185] linear =   127 [     24361] cuts =  0 [   0]
  --> max chng: dpmx=   1.2235E+00 dtmpmx=   5.6505E-02

== TH FLOW =====================================================================
 Step    179 Time=  8.35000E+00 Dt=  5.00000E-02 [y] snes_conv_reason:    3
  newton =   1 [     186] linear =   132 [     24493] cuts =  0 [   0]
  --> max chng: dpmx=   1.2304E+00 dtmpmx=   5.6237E-02

== TH FLOW =====================================================================
 Step    180 Time=  8.40000E+00 Dt=  5.00000E-02 [y] snes_conv_reason:    3
  newton =   1 [     187] linear =   130 [     24623] cuts =  0 [   0]
  --> max chng: dpmx=   1.2371E+00 dtmpmx=   5.5963E-02

== TH FLOW =====================================================================
 Step    181 Time=  8.45000E+00 Dt=  5.00000E-02 [y] snes_conv_reason:    3
  newton =   1 [     188] linear =   131 [     24754] cuts =  0 [   0]
  --> max chng: dpmx=   1.2444E+00 dtmpmx=   5.5684E-02

== TH FLOW =====================================================================
 Step    182 Time=  8.50000E+00 Dt=  5.00000E-02 [y] snes_conv_reason:    3
  newton =   1 [     189] linear =   123 [     24877] cuts =  0 [   0]
  --> max chng: dpmx=   1.2510E+00 dtmpmx=   5.5401E-02

== TH FLOW =====================================================================
 Step    183 Time=  8.55000E+00 Dt=  5.00000E-02 [y] snes_conv_reason:    3
  newton =   1 [     190] linear =   123 [     25000] cuts =  0 [   0]
  --> max chng: dpmx=   1.2585E+00 dtmpmx=   5.5113E-02

== TH FLOW =====================================================================
 Step    184 Time=  8.60000E+00 Dt=  5.00000E-02 [y] snes_conv_reason:    3
  newton =   1 [     191] linear =   131 [     25131] cuts =  0 [   0]
  --> max chng: dpmx=   1.2649E+00 dtmpmx=   5.4848E-02

== TH FLOW =====================================================================
 Step    185 Time=  8.65000E+00 Dt=  5.00000E-02 [y] snes_conv_reason:    3
  newton =   1 [     192] linear =   131 [     25262] cuts =  0 [   0]
  --> max chng: dpmx=   1.2720E+00 dtmpmx=   5.4596E-02

== TH FLOW =====================================================================
 Step    186 Time=  8.70000E+00 Dt=  5.00000E-02 [y] snes_conv_reason:    3
  newton =   1 [     193] linear =   122 [     25384] cuts =  0 [   0]
  --> max chng: dpmx=   1.2794E+00 dtmpmx=   5.4339E-02

== TH FLOW =====================================================================
 Step    187 Time=  8.75000E+00 Dt=  5.00000E-02 [y] snes_conv_reason:    3
  newton =   1 [     194] linear =   131 [     25515] cuts =  0 [   0]
  --> max chng: dpmx=   1.2860E+00 dtmpmx=   5.4077E-02

== TH FLOW =====================================================================
 Step    188 Time=  8.80000E+00 Dt=  5.00000E-02 [y] snes_conv_reason:    3
  newton =   1 [     195] linear =   128 [     25643] cuts =  0 [   0]
  --> max chng: dpmx=   1.2931E+00 dtmpmx=   5.3810E-02

== TH FLOW =====================================================================
 Step    189 Time=  8.85000E+00 Dt=  5.00000E-02 [y] snes_conv_reason:    3
  newton =   1 [     196] linear =   130 [     25773] cuts =  0 [   0]
  --> max chng: dpmx=   1.3001E+00 dtmpmx=   5.3539E-02

== TH FLOW =====================================================================
 Step    190 Time=  8.90000E+00 Dt=  5.00000E-02 [y] snes_conv_reason:    3
  newton =   1 [     197] linear =   130 [     25903] cuts =  0 [   0]
  --> max chng: dpmx=   1.3070E+00 dtmpmx=   5.3289E-02

== TH FLOW =====================================================================
 Step    191 Time=  8.95000E+00 Dt=  5.00000E-02 [y] snes_conv_reason:    3
  newton =   1 [     198] linear =   122 [     26025] cuts =  0 [   0]
  --> max chng: dpmx=   1.3141E+00 dtmpmx=   5.3052E-02

== TH FLOW =====================================================================
 Step    192 Time=  9.00000E+00 Dt=  5.00000E-02 [y] snes_conv_reason:    3
  newton =   1 [     199] linear =   124 [     26149] cuts =  0 [   0]
  --> max chng: dpmx=   1.3214E+00 dtmpmx=   5.2809E-02

== TH FLOW =====================================================================
 Step    193 Time=  9.05000E+00 Dt=  5.00000E-02 [y] snes_conv_reason:    3
  newton =   1 [     200] linear =   131 [     26280] cuts =  0 [   0]
  --> max chng: dpmx=   1.3279E+00 dtmpmx=   5.2562E-02

== TH FLOW =====================================================================
 Step    194 Time=  9.10000E+00 Dt=  5.00000E-02 [y] snes_conv_reason:    3
  newton =   1 [     201] linear =   131 [     26411] cuts =  0 [   0]
  --> max chng: dpmx=   1.3353E+00 dtmpmx=   5.2311E-02

== TH FLOW =====================================================================
 Step    195 Time=  9.15000E+00 Dt=  5.00000E-02 [y] snes_conv_reason:    3
  newton =   1 [     202] linear =   131 [     26542] cuts =  0 [   0]
  --> max chng: dpmx=   1.3420E+00 dtmpmx=   5.2055E-02

== TH FLOW =====================================================================
 Step    196 Time=  9.20000E+00 Dt=  5.00000E-02 [y] snes_conv_reason:    3
  newton =   1 [     203] linear =   121 [     26663] cuts =  0 [   0]
  --> max chng: dpmx=   1.3493E+00 dtmpmx=   5.1820E-02

== TH FLOW =====================================================================
 Step    197 Time=  9.25000E+00 Dt=  5.00000E-02 [y] snes_conv_reason:    3
  newton =   1 [     204] linear =   121 [     26784] cuts =  0 [   0]
  --> max chng: dpmx=   1.3564E+00 dtmpmx=   5.1595E-02

== TH FLOW =====================================================================
 Step    198 Time=  9.30000E+00 Dt=  5.00000E-02 [y] snes_conv_reason:    3
  newton =   1 [     205] linear =   126 [     26910] cuts =  0 [   0]
  --> max chng: dpmx=   1.3630E+00 dtmpmx=   5.1367E-02

== TH FLOW =====================================================================
 Step    199 Time=  9.35000E+00 Dt=  5.00000E-02 [y] snes_conv_reason:    3
  newton =   1 [     206] linear =   127 [     27037] cuts =  0 [   0]
  --> max chng: dpmx=   1.3705E+00 dtmpmx=   5.1134E-02

== TH FLOW =====================================================================
 Step    200 Time=  9.40000E+00 Dt=  5.00000E-02 [y] snes_conv_reason:    3
  newton =   1 [     207] linear =   128 [     27165] cuts =  0 [   0]
  --> max chng: dpmx=   1.3776E+00 dtmpmx=   5.0896E-02

== TH FLOW =====================================================================
 Step    201 Time=  9.45000E+00 Dt=  5.00000E-02 [y] snes_conv_reason:    3
  newton =   1 [     208] linear =   133 [     27298] cuts =  0 [   0]
  --> max chng: dpmx=   1.3845E+00 dtmpmx=   5.0655E-02

== TH FLOW =====================================================================
 Step    202 Time=  9.50000E+00 Dt=  5.00000E-02 [y] snes_conv_reason:    3
  newton =   1 [     209] linear =   133 [     27431] cuts =  0 [   0]
  --> max chng: dpmx=   1.3915E+00 dtmpmx=   5.0431E-02

== TH FLOW =====================================================================
 Step    203 Time=  9.55000E+00 Dt=  5.00000E-02 [y] snes_conv_reason:    3
  newton =   1 [     210] linear =   133 [     27564] cuts =  0 [   0]
  --> max chng: dpmx=   1.3984E+00 dtmpmx=   5.0219E-02

== TH FLOW =====================================================================
 Step    204 Time=  9.60000E+00 Dt=  5.00000E-02 [y] snes_conv_reason:    3
  newton =   1 [     211] linear =   136 [     27700] cuts =  0 [   0]
  --> max chng: dpmx=   1.4057E+00 dtmpmx=   5.0003E-02

== TH FLOW =====================================================================
 Step    205 Time=  9.65000E+00 Dt=  5.00000E-02 [y] snes_conv_reason:    3
  newton =   1 [     212] linear =   134 [     27834] cuts =  0 [   0]
  --> max chng: dpmx=   1.4128E+00 dtmpmx=   4.9783E-02

== TH FLOW =====================================================================
 Step    206 Time=  9.70000E+00 Dt=  5.00000E-02 [y] snes_conv_reason:    3
  newton =   1 [     213] linear =   137 [     27971] cuts =  0 [   0]
  --> max chng: dpmx=   1.4199E+00 dtmpmx=   4.9558E-02

== TH FLOW =====================================================================
 Step    207 Time=  9.75000E+00 Dt=  5.00000E-02 [y] snes_conv_reason:    3
  newton =   1 [     214] linear =   124 [     28095] cuts =  0 [   0]
  --> max chng: dpmx=   1.4269E+00 dtmpmx=   4.9330E-02

== TH FLOW =====================================================================
 Step    208 Time=  9.80000E+00 Dt=  5.00000E-02 [y] snes_conv_reason:    3
  newton =   1 [     215] linear =   128 [     28223] cuts =  0 [   0]
  --> max chng: dpmx=   1.4339E+00 dtmpmx=   4.9118E-02

== TH FLOW =====================================================================
 Step    209 Time=  9.85000E+00 Dt=  5.00000E-02 [y] snes_conv_reason:    3
  newton =   1 [     216] linear =   131 [     28354] cuts =  0 [   0]
  --> max chng: dpmx=   1.4410E+00 dtmpmx=   4.8917E-02

== TH FLOW =====================================================================
 Step    210 Time=  9.90000E+00 Dt=  5.00000E-02 [y] snes_conv_reason:    3
  newton =   1 [     217] linear =   132 [     28486] cuts =  0 [   0]
  --> max chng: dpmx=   1.4483E+00 dtmpmx=   4.8713E-02

== TH FLOW =====================================================================
 Step    211 Time=  9.95000E+00 Dt=  5.00000E-02 [y] snes_conv_reason:    3
  newton =   1 [     218] linear =   132 [     28618] cuts =  0 [   0]
  --> max chng: dpmx=   1.4552E+00 dtmpmx=   4.8504E-02

== TH FLOW =====================================================================
 Step    212 Time=  1.00000E+01 Dt=  5.00000E-02 [y] snes_conv_reason:    3
  newton =   1 [     219] linear =   127 [     28745] cuts =  0 [   0]
  --> max chng: dpmx=   1.4623E+00 dtmpmx=   4.8291E-02

== TH FLOW =====================================================================
 Step    213 Time=  1.00500E+01 Dt=  5.00000E-02 [y] snes_conv_reason:    3
  newton =   1 [     220] linear =   126 [     28871] cuts =  0 [   0]
  --> max chng: dpmx=   1.4695E+00 dtmpmx=   4.8075E-02

== TH FLOW =====================================================================
 Step    214 Time=  1.01000E+01 Dt=  5.00000E-02 [y] snes_conv_reason:    3
  newton =   1 [     221] linear =   125 [     28996] cuts =  0 [   0]
  --> max chng: dpmx=   1.4763E+00 dtmpmx=   4.7873E-02

== TH FLOW =====================================================================
 Step    215 Time=  1.01500E+01 Dt=  5.00000E-02 [y] snes_conv_reason:    3
  newton =   1 [     222] linear =   130 [     29126] cuts =  0 [   0]
  --> max chng: dpmx=   1.4841E+00 dtmpmx=   4.7683E-02

== TH FLOW =====================================================================
 Step    216 Time=  1.02000E+01 Dt=  5.00000E-02 [y] snes_conv_reason:    3
  newton =   1 [     223] linear =   118 [     29244] cuts =  0 [   0]
  --> max chng: dpmx=   1.4906E+00 dtmpmx=   4.7489E-02

== TH FLOW =====================================================================
 Step    217 Time=  1.02500E+01 Dt=  5.00000E-02 [y] snes_conv_reason:    3
  newton =   1 [     224] linear =   128 [     29372] cuts =  0 [   0]
  --> max chng: dpmx=   1.4976E+00 dtmpmx=   4.7291E-02

== TH FLOW =====================================================================
 Step    218 Time=  1.03000E+01 Dt=  5.00000E-02 [y] snes_conv_reason:    3
  newton =   1 [     225] linear =   118 [     29490] cuts =  0 [   0]
  --> max chng: dpmx=   1.5050E+00 dtmpmx=   4.7089E-02

== TH FLOW =====================================================================
 Step    219 Time=  1.03500E+01 Dt=  5.00000E-02 [y] snes_conv_reason:    3
  newton =   1 [     226] linear =   130 [     29620] cuts =  0 [   0]
  --> max chng: dpmx=   1.5117E+00 dtmpmx=   4.6884E-02

== TH FLOW =====================================================================
 Step    220 Time=  1.04000E+01 Dt=  5.00000E-02 [y] snes_conv_reason:    3
  newton =   1 [     227] linear =   124 [     29744] cuts =  0 [   0]
  --> max chng: dpmx=   1.5192E+00 dtmpmx=   4.6691E-02

== TH FLOW =====================================================================
 Step    221 Time=  1.04500E+01 Dt=  5.00000E-02 [y] snes_conv_reason:    3
  newton =   1 [     228] linear =   130 [     29874] cuts =  0 [   0]
  --> max chng: dpmx=   1.5256E+00 dtmpmx=   4.6511E-02

== TH FLOW =====================================================================
 Step    222 Time=  1.05000E+01 Dt=  5.00000E-02 [y] snes_conv_reason:    3
  newton =   1 [     229] linear =   130 [     30004] cuts =  0 [   0]
  --> max chng: dpmx=   1.5334E+00 dtmpmx=   4.6327E-02

== TH FLOW =====================================================================
 Step    223 Time=  1.05500E+01 Dt=  5.00000E-02 [y] snes_conv_reason:    3
  newton =   1 [     230] linear =   130 [     30134] cuts =  0 [   0]
  --> max chng: dpmx=   1.5401E+00 dtmpmx=   4.6139E-02

== TH FLOW =====================================================================
 Step    224 Time=  1.06000E+01 Dt=  5.00000E-02 [y] snes_conv_reason:    3
  newton =   1 [     231] linear =   127 [     30261] cuts =  0 [   0]
  --> max chng: dpmx=   1.5471E+00 dtmpmx=   4.5947E-02

== TH FLOW =====================================================================
 Step    225 Time=  1.06500E+01 Dt=  5.00000E-02 [y] snes_conv_reason:    3
  newton =   1 [     232] linear =   126 [     30387] cuts =  0 [   0]
  --> max chng: dpmx=   1.5537E+00 dtmpmx=   4.5752E-02

== TH FLOW =====================================================================
 Step    226 Time=  1.07000E+01 Dt=  5.00000E-02 [y] snes_conv_reason:    3
  newton =   1 [     233] linear =   126 [     30513] cuts =  0 [   0]
  --> max chng: dpmx=   1.5610E+00 dtmpmx=   4.5568E-02

== TH FLOW =====================================================================
 Step    227 Time=  1.07500E+01 Dt=  5.00000E-02 [y] snes_conv_reason:    3
  newton =   1 [     234] linear =   126 [     30639] cuts =  0 [   0]
  --> max chng: dpmx=   1.5677E+00 dtmpmx=   4.5397E-02

== TH FLOW =====================================================================
 Step    228 Time=  1.08000E+01 Dt=  5.00000E-02 [y] snes_conv_reason:    3
  newton =   1 [     235] linear =   123 [     30762] cuts =  0 [   0]
  --> max chng: dpmx=   1.5748E+00 dtmpmx=   4.5222E-02

== TH FLOW =====================================================================
 Step    229 Time=  1.08500E+01 Dt=  5.00000E-02 [y] snes_conv_reason:    3
  newton =   1 [     236] linear =   119 [     30881] cuts =  0 [   0]
  --> max chng: dpmx=   1.5815E+00 dtmpmx=   4.5043E-02

== TH FLOW =====================================================================
 Step    230 Time=  1.09000E+01 Dt=  5.00000E-02 [y] snes_conv_reason:    3
  newton =   1 [     237] linear =   125 [     31006] cuts =  0 [   0]
  --> max chng: dpmx=   1.5880E+00 dtmpmx=   4.4861E-02

== TH FLOW =====================================================================
 Step    231 Time=  1.09500E+01 Dt=  5.00000E-02 [y] snes_conv_reason:    3
  newton =   1 [     238] linear =   130 [     31136] cuts =  0 [   0]
  --> max chng: dpmx=   1.5951E+00 dtmpmx=   4.4676E-02

== TH FLOW =====================================================================
 Step    232 Time=  1.10000E+01 Dt=  5.00000E-02 [y] snes_conv_reason:    3
  newton =   1 [     239] linear =   130 [     31266] cuts =  0 [   0]
  --> max chng: dpmx=   1.6016E+00 dtmpmx=   4.4499E-02

== TH FLOW =====================================================================
 Step    233 Time=  1.10500E+01 Dt=  5.00000E-02 [y] snes_conv_reason:    3
  newton =   1 [     240] linear =   129 [     31395] cuts =  0 [   0]
  --> max chng: dpmx=   1.6081E+00 dtmpmx=   4.4336E-02

== TH FLOW =====================================================================
 Step    234 Time=  1.11000E+01 Dt=  5.00000E-02 [y] snes_conv_reason:    3
  newton =   1 [     241] linear =   125 [     31520] cuts =  0 [   0]
  --> max chng: dpmx=   1.6145E+00 dtmpmx=   4.4169E-02

== TH FLOW =====================================================================
 Step    235 Time=  1.11500E+01 Dt=  5.00000E-02 [y] snes_conv_reason:    3
  newton =   1 [     242] linear =   126 [     31646] cuts =  0 [   0]
  --> max chng: dpmx=   1.6209E+00 dtmpmx=   4.3999E-02

== TH FLOW =====================================================================
 Step    236 Time=  1.12000E+01 Dt=  5.00000E-02 [y] snes_conv_reason:    3
  newton =   1 [     243] linear =   126 [     31772] cuts =  0 [   0]
  --> max chng: dpmx=   1.6272E+00 dtmpmx=   4.3826E-02

== TH FLOW =====================================================================
 Step    237 Time=  1.12500E+01 Dt=  5.00000E-02 [y] snes_conv_reason:    3
  newton =   1 [     244] linear =   128 [     31900] cuts =  0 [   0]
  --> max chng: dpmx=   1.6334E+00 dtmpmx=   4.3650E-02

== TH FLOW =====================================================================
 Step    238 Time=  1.13000E+01 Dt=  5.00000E-02 [y] snes_conv_reason:    3
  newton =   1 [     245] linear =   131 [     32031] cuts =  0 [   0]
  --> max chng: dpmx=   1.6392E+00 dtmpmx=   4.3480E-02

== TH FLOW =====================================================================
 Step    239 Time=  1.13500E+01 Dt=  5.00000E-02 [y] snes_conv_reason:    3
  newton =   1 [     246] linear =   130 [     32161] cuts =  0 [   0]
  --> max chng: dpmx=   1.6449E+00 dtmpmx=   4.3325E-02

== TH FLOW =====================================================================
 Step    240 Time=  1.14000E+01 Dt=  5.00000E-02 [y] snes_conv_reason:    3
  newton =   1 [     247] linear =   129 [     32290] cuts =  0 [   0]
  --> max chng: dpmx=   1.6507E+00 dtmpmx=   4.3166E-02

== TH FLOW =====================================================================
 Step    241 Time=  1.14500E+01 Dt=  5.00000E-02 [y] snes_conv_reason:    3
  newton =   1 [     248] linear =   128 [     32418] cuts =  0 [   0]
  --> max chng: dpmx=   1.6563E+00 dtmpmx=   4.3004E-02

== TH FLOW =====================================================================
 Step    242 Time=  1.15000E+01 Dt=  5.00000E-02 [y] snes_conv_reason:    3
  newton =   1 [     249] linear =   118 [     32536] cuts =  0 [   0]
  --> max chng: dpmx=   1.6612E+00 dtmpmx=   4.2839E-02

== TH FLOW =====================================================================
 Step    243 Time=  1.15500E+01 Dt=  5.00000E-02 [y] snes_conv_reason:    3
  newton =   1 [     250] linear =   128 [     32664] cuts =  0 [   0]
  --> max chng: dpmx=   1.6662E+00 dtmpmx=   4.2671E-02

== TH FLOW =====================================================================
 Step    244 Time=  1.16000E+01 Dt=  5.00000E-02 [y] snes_conv_reason:    3
  newton =   1 [     251] linear =   135 [     32799] cuts =  0 [   0]
  --> max chng: dpmx=   1.6710E+00 dtmpmx=   4.2508E-02

== TH FLOW =====================================================================
 Step    245 Time=  1.16500E+01 Dt=  5.00000E-02 [y] snes_conv_reason:    3
  newton =   1 [     252] linear =   131 [     32930] cuts =  0 [   0]
  --> max chng: dpmx=   1.6753E+00 dtmpmx=   4.2360E-02

== TH FLOW =====================================================================
 Step    246 Time=  1.17000E+01 Dt=  5.00000E-02 [y] snes_conv_reason:    3
  newton =   1 [     253] linear =   130 [     33060] cuts =  0 [   0]
  --> max chng: dpmx=   1.6796E+00 dtmpmx=   4.2208E-02

== TH FLOW =====================================================================
 Step    247 Time=  1.17500E+01 Dt=  5.00000E-02 [y] snes_conv_reason:    3
  newton =   1 [     254] linear =   126 [     33186] cuts =  0 [   0]
  --> max chng: dpmx=   1.6831E+00 dtmpmx=   4.2054E-02

== TH FLOW =====================================================================
 Step    248 Time=  1.18000E+01 Dt=  5.00000E-02 [y] snes_conv_reason:    3
  newton =   1 [     255] linear =   126 [     33312] cuts =  0 [   0]
  --> max chng: dpmx=   1.6864E+00 dtmpmx=   4.1896E-02

== TH FLOW =====================================================================
 Step    249 Time=  1.18500E+01 Dt=  5.00000E-02 [y] snes_conv_reason:    3
  newton =   1 [     256] linear =   129 [     33441] cuts =  0 [   0]
  --> max chng: dpmx=   1.6897E+00 dtmpmx=   4.1736E-02

== TH FLOW =====================================================================
 Step    250 Time=  1.19000E+01 Dt=  5.00000E-02 [y] snes_conv_reason:    3
  newton =   1 [     257] linear =   129 [     33570] cuts =  0 [   0]
  --> max chng: dpmx=   1.6920E+00 dtmpmx=   4.1579E-02

== TH FLOW =====================================================================
 Step    251 Time=  1.19500E+01 Dt=  5.00000E-02 [y] snes_conv_reason:    3
  newton =   1 [     258] linear =   124 [     33694] cuts =  0 [   0]
  --> max chng: dpmx=   1.6938E+00 dtmpmx=   4.1438E-02

== TH FLOW =====================================================================
 Step    252 Time=  1.20000E+01 Dt=  5.00000E-02 [y] snes_conv_reason:    3
  newton =   1 [     259] linear =   124 [     33818] cuts =  0 [   0]
  --> max chng: dpmx=   1.6953E+00 dtmpmx=   4.1293E-02

== TH FLOW =====================================================================
 Step    253 Time=  1.20500E+01 Dt=  5.00000E-02 [y] snes_conv_reason:    3
  newton =   1 [     260] linear =   122 [     33940] cuts =  0 [   0]
  --> max chng: dpmx=   1.6965E+00 dtmpmx=   4.1145E-02

== TH FLOW =====================================================================
 Step    254 Time=  1.21000E+01 Dt=  5.00000E-02 [y] snes_conv_reason:    3
  newton =   1 [     261] linear =   128 [     34068] cuts =  0 [   0]
  --> max chng: dpmx=   1.6969E+00 dtmpmx=   4.0995E-02

== TH FLOW =====================================================================
 Step    255 Time=  1.21500E+01 Dt=  5.00000E-02 [y] snes_conv_reason:    3
  newton =   1 [     262] linear =   121 [     34189] cuts =  0 [   0]
  --> max chng: dpmx=   1.6966E+00 dtmpmx=   4.0842E-02

== TH FLOW =====================================================================
 Step    256 Time=  1.22000E+01 Dt=  5.00000E-02 [y] snes_conv_reason:    3
  newton =   1 [     263] linear =   127 [     34316] cuts =  0 [   0]
  --> max chng: dpmx=   1.6954E+00 dtmpmx=   4.0690E-02

== TH FLOW =====================================================================
 Step    257 Time=  1.22500E+01 Dt=  5.00000E-02 [y] snes_conv_reason:    3
  newton =   1 [     264] linear =   126 [     34442] cuts =  0 [   0]
  --> max chng: dpmx=   1.6940E+00 dtmpmx=   4.0555E-02

[...]
 Step    493 Time=  2.40500E+01 Dt=  5.00000E-02 [y] snes_conv_reason:   11
  newton =   1 [     500] linear =   116 [     64204] cuts =  0 [   0]
  --> max chng: dpmx=   6.9542E-03 dtmpmx=   9.6549E-05

== TH FLOW =====================================================================
 Step    494 Time=  2.41000E+01 Dt=  5.00000E-02 [y] snes_conv_reason:   11
  newton =   1 [     501] linear =   118 [     64322] cuts =  0 [   0]
  --> max chng: dpmx=   6.8797E-03 dtmpmx=   9.6485E-05

== TH FLOW =====================================================================
 Step    495 Time=  2.41500E+01 Dt=  5.00000E-02 [y] snes_conv_reason:   11
  newton =   1 [     502] linear =   119 [     64441] cuts =  0 [   0]
  --> max chng: dpmx=   6.8039E-03 dtmpmx=   9.6421E-05

== TH FLOW =====================================================================
 Step    496 Time=  2.42000E+01 Dt=  5.00000E-02 [y] snes_conv_reason:   11
  newton =   1 [     503] linear =   119 [     64560] cuts =  0 [   0]
  --> max chng: dpmx=   6.7277E-03 dtmpmx=   9.6357E-05

== TH FLOW =====================================================================
 Step    497 Time=  2.42500E+01 Dt=  5.00000E-02 [y] snes_conv_reason:   11
  newton =   1 [     504] linear =   118 [     64678] cuts =  0 [   0]
  --> max chng: dpmx=   6.6503E-03 dtmpmx=   9.6293E-05

== TH FLOW =====================================================================
 Step    498 Time=  2.43000E+01 Dt=  5.00000E-02 [y] snes_conv_reason:   11
  newton =   1 [     505] linear =   121 [     64799] cuts =  0 [   0]
  --> max chng: dpmx=   6.5728E-03 dtmpmx=   9.6229E-05

== TH FLOW =====================================================================
 Step    499 Time=  2.43500E+01 Dt=  5.00000E-02 [y] snes_conv_reason:   11
  newton =   1 [     506] linear =   121 [     64920] cuts =  0 [   0]
  --> max chng: dpmx=   6.4949E-03 dtmpmx=   9.6164E-05

== TH FLOW =====================================================================
 Step    500 Time=  2.44000E+01 Dt=  5.00000E-02 [y] snes_conv_reason:   11
  newton =   1 [     507] linear =   121 [     65041] cuts =  0 [   0]
  --> max chng: dpmx=   6.4151E-03 dtmpmx=   9.6097E-05

== TH FLOW =====================================================================
 Step    501 Time=  2.44500E+01 Dt=  5.00000E-02 [y] snes_conv_reason:   11
  newton =   1 [     508] linear =   121 [     65162] cuts =  0 [   0]
  --> max chng: dpmx=   6.3365E-03 dtmpmx=   9.6015E-05

== TH FLOW =====================================================================
 Step    502 Time=  2.45000E+01 Dt=  5.00000E-02 [y] snes_conv_reason:   11
  newton =   1 [     509] linear =   114 [     65276] cuts =  0 [   0]
  --> max chng: dpmx=   6.2558E-03 dtmpmx=   9.5919E-05

== TH FLOW =====================================================================
 Step    503 Time=  2.45500E+01 Dt=  5.00000E-02 [y] snes_conv_reason:   11
  newton =   1 [     510] linear =   122 [     65398] cuts =  0 [   0]
  --> max chng: dpmx=   6.1750E-03 dtmpmx=   9.5822E-05

== TH FLOW =====================================================================
 Step    504 Time=  2.46000E+01 Dt=  5.00000E-02 [y] snes_conv_reason:   11
  newton =   1 [     511] linear =   126 [     65524] cuts =  0 [   0]
  --> max chng: dpmx=   6.0944E-03 dtmpmx=   9.5708E-05

== TH FLOW =====================================================================
 Step    505 Time=  2.46500E+01 Dt=  5.00000E-02 [y] snes_conv_reason:   11
  newton =   1 [     512] linear =   120 [     65644] cuts =  0 [   0]
  --> max chng: dpmx=   6.0131E-03 dtmpmx=   9.5576E-05

== TH FLOW =====================================================================
 Step    506 Time=  2.47000E+01 Dt=  5.00000E-02 [y] snes_conv_reason:   11
  newton =   1 [     513] linear =   125 [     65769] cuts =  0 [   0]
  --> max chng: dpmx=   5.9310E-03 dtmpmx=   9.5427E-05

== TH FLOW =====================================================================
 Step    507 Time=  2.47500E+01 Dt=  5.00000E-02 [y] snes_conv_reason:   11
  newton =   1 [     514] linear =   115 [     65884] cuts =  0 [   0]
  --> max chng: dpmx=   5.8479E-03 dtmpmx=   9.5258E-05

== TH FLOW =====================================================================
 Step    508 Time=  2.48000E+01 Dt=  5.00000E-02 [y] snes_conv_reason:   11
  newton =   1 [     515] linear =   115 [     65999] cuts =  0 [   0]
  --> max chng: dpmx=   5.7647E-03 dtmpmx=   9.5070E-05

== TH FLOW =====================================================================
 Step    509 Time=  2.48500E+01 Dt=  5.00000E-02 [y] snes_conv_reason:   11
  newton =   1 [     516] linear =   114 [     66113] cuts =  0 [   0]
  --> max chng: dpmx=   5.6814E-03 dtmpmx=   9.4862E-05

== TH FLOW =====================================================================
 Step    510 Time=  2.49000E+01 Dt=  5.00000E-02 [y] snes_conv_reason:   11
  newton =   1 [     517] linear =   119 [     66232] cuts =  0 [   0]
  --> max chng: dpmx=   5.5982E-03 dtmpmx=   9.4633E-05

== TH FLOW =====================================================================
 Step    511 Time=  2.49500E+01 Dt=  5.00000E-02 [y] snes_conv_reason:   11
  newton =   1 [     518] linear =   121 [     66353] cuts =  0 [   0]
  --> max chng: dpmx=   5.5131E-03 dtmpmx=   9.4383E-05

== TH FLOW =====================================================================
 Step    512 Time=  2.50000E+01 Dt=  5.00000E-02 [y] snes_conv_reason:   11
  newton =   1 [     519] linear =   123 [     66476] cuts =  0 [   0]
  --> max chng: dpmx=   5.4297E-03 dtmpmx=   9.4111E-05

== TH FLOW =====================================================================
 Step    513 Time=  2.50500E+01 Dt=  5.00000E-02 [y] snes_conv_reason:   11
  newton =   1 [     520] linear =   124 [     66600] cuts =  0 [   0]
  --> max chng: dpmx=   5.3432E-03 dtmpmx=   9.3816E-05

== TH FLOW =====================================================================
 Step    514 Time=  2.51000E+01 Dt=  5.00000E-02 [y] snes_conv_reason:   11
  newton =   1 [     521] linear =   123 [     66723] cuts =  0 [   0]
  --> max chng: dpmx=   5.2604E-03 dtmpmx=   9.3498E-05

== TH FLOW =====================================================================
 Step    515 Time=  2.51500E+01 Dt=  5.00000E-02 [y] snes_conv_reason:   11
  newton =   1 [     522] linear =   111 [     66834] cuts =  0 [   0]
  --> max chng: dpmx=   5.1734E-03 dtmpmx=   9.3157E-05

== TH FLOW =====================================================================
 Step    516 Time=  2.52000E+01 Dt=  5.00000E-02 [y] snes_conv_reason:   11
  newton =   1 [     523] linear =   122 [     66956] cuts =  0 [   0]
  --> max chng: dpmx=   5.0881E-03 dtmpmx=   9.2791E-05

== TH FLOW =====================================================================
 Step    517 Time=  2.52500E+01 Dt=  5.00000E-02 [y] snes_conv_reason:   11
  newton =   1 [     524] linear =   118 [     67074] cuts =  0 [   0]
  --> max chng: dpmx=   5.0028E-03 dtmpmx=   9.2401E-05

== TH FLOW =====================================================================
 Step    518 Time=  2.53000E+01 Dt=  5.00000E-02 [y] snes_conv_reason:   11
  newton =   1 [     525] linear =   122 [     67196] cuts =  0 [   0]
  --> max chng: dpmx=   4.9158E-03 dtmpmx=   9.1985E-05

== TH FLOW =====================================================================
 Step    519 Time=  2.53500E+01 Dt=  5.00000E-02 [y] snes_conv_reason:   11
  newton =   1 [     526] linear =   127 [     67323] cuts =  0 [   0]
  --> max chng: dpmx=   4.8311E-03 dtmpmx=   9.1544E-05

== TH FLOW =====================================================================
 Step    520 Time=  2.54000E+01 Dt=  5.00000E-02 [y] snes_conv_reason:   11
  newton =   1 [     527] linear =   124 [     67447] cuts =  0 [   0]
  --> max chng: dpmx=   4.7447E-03 dtmpmx=   9.1077E-05

== TH FLOW =====================================================================
 Step    521 Time=  2.54500E+01 Dt=  5.00000E-02 [y] snes_conv_reason:   11
  newton =   1 [     528] linear =   124 [     67571] cuts =  0 [   0]
  --> max chng: dpmx=   4.6584E-03 dtmpmx=   9.0584E-05

== TH FLOW =====================================================================
 Step    522 Time=  2.55000E+01 Dt=  5.00000E-02 [y] snes_conv_reason:   11
  newton =   1 [     529] linear =   124 [     67695] cuts =  0 [   0]
  --> max chng: dpmx=   4.5720E-03 dtmpmx=   9.0064E-05

== TH FLOW =====================================================================
 Step    523 Time=  2.55500E+01 Dt=  5.00000E-02 [y] snes_conv_reason:   11
  newton =   1 [     530] linear =   124 [     67819] cuts =  0 [   0]
  --> max chng: dpmx=   4.4860E-03 dtmpmx=   8.9517E-05

== TH FLOW =====================================================================
 Step    524 Time=  2.56000E+01 Dt=  5.00000E-02 [y] snes_conv_reason:   11
  newton =   1 [     531] linear =   124 [     67943] cuts =  0 [   0]
  --> max chng: dpmx=   4.4000E-03 dtmpmx=   8.8943E-05

== TH FLOW =====================================================================
 Step    525 Time=  2.56500E+01 Dt=  5.00000E-02 [y] snes_conv_reason:   11
  newton =   1 [     532] linear =   123 [     68066] cuts =  0 [   0]
  --> max chng: dpmx=   4.3147E-03 dtmpmx=   8.8342E-05

== TH FLOW =====================================================================
 Step    526 Time=  2.57000E+01 Dt=  5.00000E-02 [y] snes_conv_reason:   11
  newton =   1 [     533] linear =   123 [     68189] cuts =  0 [   0]
  --> max chng: dpmx=   4.2279E-03 dtmpmx=   8.7713E-05

== TH FLOW =====================================================================
 Step    527 Time=  2.57500E+01 Dt=  5.00000E-02 [y] snes_conv_reason:   11
  newton =   1 [     534] linear =   123 [     68312] cuts =  0 [   0]
  --> max chng: dpmx=   4.1422E-03 dtmpmx=   8.7056E-05

== TH FLOW =====================================================================
 Step    528 Time=  2.58000E+01 Dt=  5.00000E-02 [y] snes_conv_reason:   11
  newton =   1 [     535] linear =   128 [     68440] cuts =  0 [   0]
  --> max chng: dpmx=   4.0576E-03 dtmpmx=   8.6372E-05

== TH FLOW =====================================================================
 Step    529 Time=  2.58500E+01 Dt=  5.00000E-02 [y] snes_conv_reason:   11
  newton =   1 [     536] linear =   121 [     68561] cuts =  0 [   0]
  --> max chng: dpmx=   3.9723E-03 dtmpmx=   8.5660E-05

== TH FLOW =====================================================================
 Step    530 Time=  2.59000E+01 Dt=  5.00000E-02 [y] snes_conv_reason:   11
  newton =   1 [     537] linear =   128 [     68689] cuts =  0 [   0]
  --> max chng: dpmx=   3.8865E-03 dtmpmx=   8.4921E-05

== TH FLOW =====================================================================
 Step    531 Time=  2.59500E+01 Dt=  5.00000E-02 [y] snes_conv_reason:   11
  newton =   1 [     538] linear =   128 [     68817] cuts =  0 [   0]
  --> max chng: dpmx=   3.8023E-03 dtmpmx=   8.4154E-05

== TH FLOW =====================================================================
 Step    532 Time=  2.60000E+01 Dt=  5.00000E-02 [y] snes_conv_reason:   11
  newton =   1 [     539] linear =   126 [     68943] cuts =  0 [   0]
  --> max chng: dpmx=   3.7187E-03 dtmpmx=   8.3360E-05

== TH FLOW =====================================================================
 Step    533 Time=  2.60500E+01 Dt=  5.00000E-02 [y] snes_conv_reason:   11
  newton =   1 [     540] linear =   126 [     69069] cuts =  0 [   0]
  --> max chng: dpmx=   3.6339E-03 dtmpmx=   8.2538E-05

== TH FLOW =====================================================================
 Step    534 Time=  2.61000E+01 Dt=  5.00000E-02 [y] snes_conv_reason:   11
  newton =   1 [     541] linear =   126 [     69195] cuts =  0 [   0]
  --> max chng: dpmx=   3.5506E-03 dtmpmx=   8.1690E-05

== TH FLOW =====================================================================
 Step    535 Time=  2.61500E+01 Dt=  5.00000E-02 [y] snes_conv_reason:   11
  newton =   1 [     542] linear =   131 [     69326] cuts =  0 [   0]
  --> max chng: dpmx=   3.4682E-03 dtmpmx=   8.0815E-05

== TH FLOW =====================================================================
 Step    536 Time=  2.62000E+01 Dt=  5.00000E-02 [y] snes_conv_reason:   11
  newton =   1 [     543] linear =   131 [     69457] cuts =  0 [   0]
  --> max chng: dpmx=   3.3853E-03 dtmpmx=   7.9915E-05

== TH FLOW =====================================================================
 Step    537 Time=  2.62500E+01 Dt=  5.00000E-02 [y] snes_conv_reason:   11
  newton =   1 [     544] linear =   131 [     69588] cuts =  0 [   0]
  --> max chng: dpmx=   3.3036E-03 dtmpmx=   7.8988E-05

== TH FLOW =====================================================================
 Step    538 Time=  2.63000E+01 Dt=  5.00000E-02 [y] snes_conv_reason:   11
  newton =   1 [     545] linear =   128 [     69716] cuts =  0 [   0]
  --> max chng: dpmx=   3.2226E-03 dtmpmx=   7.8037E-05

== TH FLOW =====================================================================
 Step    539 Time=  2.63500E+01 Dt=  5.00000E-02 [y] snes_conv_reason:   11
  newton =   1 [     546] linear =   123 [     69839] cuts =  0 [   0]
  --> max chng: dpmx=   3.1416E-03 dtmpmx=   7.7061E-05

== TH FLOW =====================================================================
 Step    540 Time=  2.64000E+01 Dt=  5.00000E-02 [y] snes_conv_reason:   11
  newton =   1 [     547] linear =   129 [     69968] cuts =  0 [   0]
  --> max chng: dpmx=   3.0611E-03 dtmpmx=   7.6061E-05

== TH FLOW =====================================================================
 Step    541 Time=  2.64500E+01 Dt=  5.00000E-02 [y] snes_conv_reason:   11
  newton =   1 [     548] linear =   128 [     70096] cuts =  0 [   0]
  --> max chng: dpmx=   2.9829E-03 dtmpmx=   7.5038E-05

== TH FLOW =====================================================================
 Step    542 Time=  2.65000E+01 Dt=  5.00000E-02 [y] snes_conv_reason:   11
  newton =   1 [     549] linear =   127 [     70223] cuts =  0 [   0]
  --> max chng: dpmx=   2.9037E-03 dtmpmx=   7.3992E-05

== TH FLOW =====================================================================
 Step    543 Time=  2.65500E+01 Dt=  5.00000E-02 [y] snes_conv_reason:   11
  newton =   1 [     550] linear =   128 [     70351] cuts =  0 [   0]
  --> max chng: dpmx=   2.8257E-03 dtmpmx=   7.2924E-05

== TH FLOW =====================================================================
 Step    544 Time=  2.66000E+01 Dt=  5.00000E-02 [y] snes_conv_reason:   11
  newton =   1 [     551] linear =   128 [     70479] cuts =  0 [   0]
  --> max chng: dpmx=   2.7490E-03 dtmpmx=   7.1836E-05

== TH FLOW =====================================================================
 Step    545 Time=  2.66500E+01 Dt=  5.00000E-02 [y] snes_conv_reason:   11
  newton =   1 [     552] linear =   128 [     70607] cuts =  0 [   0]
  --> max chng: dpmx=   2.6728E-03 dtmpmx=   7.0728E-05

== TH FLOW =====================================================================
 Step    546 Time=  2.67000E+01 Dt=  5.00000E-02 [y] snes_conv_reason:   11
  newton =   1 [     553] linear =   133 [     70740] cuts =  0 [   0]
  --> max chng: dpmx=   2.5980E-03 dtmpmx=   6.9601E-05

== TH FLOW =====================================================================
 Step    547 Time=  2.67500E+01 Dt=  5.00000E-02 [y] snes_conv_reason:   11
  newton =   1 [     554] linear =   133 [     70873] cuts =  0 [   0]
  --> max chng: dpmx=   2.5233E-03 dtmpmx=   6.8455E-05

== TH FLOW =====================================================================
 Step    548 Time=  2.68000E+01 Dt=  5.00000E-02 [y] snes_conv_reason:   11
  newton =   1 [     555] linear =   132 [     71005] cuts =  0 [   0]
  --> max chng: dpmx=   2.4502E-03 dtmpmx=   6.7293E-05

== TH FLOW =====================================================================
 Step    549 Time=  2.68500E+01 Dt=  5.00000E-02 [y] snes_conv_reason:   11
  newton =   1 [     556] linear =   133 [     71138] cuts =  0 [   0]
  --> max chng: dpmx=   2.3773E-03 dtmpmx=   6.6114E-05

== TH FLOW =====================================================================
 Step    550 Time=  2.69000E+01 Dt=  5.00000E-02 [y] snes_conv_reason:   11
  newton =   1 [     557] linear =   134 [     71272] cuts =  0 [   0]
  --> max chng: dpmx=   2.3060E-03 dtmpmx=   6.4921E-05

== TH FLOW =====================================================================
 Step    551 Time=  2.69500E+01 Dt=  5.00000E-02 [y] snes_conv_reason:   11
  newton =   1 [     558] linear =   133 [     71405] cuts =  0 [   0]
  --> max chng: dpmx=   2.2357E-03 dtmpmx=   6.3714E-05

== TH FLOW =====================================================================
 Step    552 Time=  2.70000E+01 Dt=  5.00000E-02 [y] snes_conv_reason:   11
  newton =   1 [     559] linear =   131 [     71536] cuts =  0 [   0]
  --> max chng: dpmx=   2.1661E-03 dtmpmx=   6.2495E-05

== TH FLOW =====================================================================
 Step    553 Time=  2.70500E+01 Dt=  5.00000E-02 [y] snes_conv_reason:   11
  newton =   1 [     560] linear =   131 [     71667] cuts =  0 [   0]
  --> max chng: dpmx=   2.0981E-03 dtmpmx=   6.1264E-05

== TH FLOW =====================================================================
 Step    554 Time=  2.71000E+01 Dt=  5.00000E-02 [y] snes_conv_reason:   11
  newton =   1 [     561] linear =   131 [     71798] cuts =  0 [   0]
  --> max chng: dpmx=   2.0307E-03 dtmpmx=   6.0023E-05

== TH FLOW =====================================================================
 Step    555 Time=  2.71500E+01 Dt=  5.00000E-02 [y] snes_conv_reason:   11
  newton =   1 [     562] linear =   131 [     71929] cuts =  0 [   0]
  --> max chng: dpmx=   1.9645E-03 dtmpmx=   5.8773E-05

== TH FLOW =====================================================================
 Step    556 Time=  2.72000E+01 Dt=  5.00000E-02 [y] snes_conv_reason:   11
  newton =   1 [     563] linear =   131 [     72060] cuts =  0 [   0]
  --> max chng: dpmx=   1.8997E-03 dtmpmx=   5.7515E-05

== TH FLOW =====================================================================
 Step    557 Time=  2.72500E+01 Dt=  5.00000E-02 [y] snes_conv_reason:   11
  newton =   1 [     564] linear =   131 [     72191] cuts =  0 [   0]
  --> max chng: dpmx=   1.8358E-03 dtmpmx=   5.6251E-05

== TH FLOW =====================================================================
 Step    558 Time=  2.73000E+01 Dt=  5.00000E-02 [y] snes_conv_reason:   11
  newton =   1 [     565] linear =   130 [     72321] cuts =  0 [   0]
  --> max chng: dpmx=   1.7736E-03 dtmpmx=   5.4982E-05

== TH FLOW =====================================================================
 Step    559 Time=  2.73500E+01 Dt=  5.00000E-02 [y] snes_conv_reason:   11
  newton =   1 [     566] linear =   130 [     72451] cuts =  0 [   0]
  --> max chng: dpmx=   1.7117E-03 dtmpmx=   5.3709E-05

== TH FLOW =====================================================================
 Step    560 Time=  2.74000E+01 Dt=  5.00000E-02 [y] snes_conv_reason:   11
  newton =   1 [     567] linear =   130 [     72581] cuts =  0 [   0]
  --> max chng: dpmx=   1.6516E-03 dtmpmx=   5.2434E-05

== TH FLOW =====================================================================
 Step    561 Time=  2.74500E+01 Dt=  5.00000E-02 [y] snes_conv_reason:   11
  newton =   1 [     568] linear =   135 [     72716] cuts =  0 [   0]
  --> max chng: dpmx=   1.5930E-03 dtmpmx=   5.1164E-05

== TH FLOW =====================================================================
 Step    562 Time=  2.75000E+01 Dt=  5.00000E-02 [y] snes_conv_reason:   11
  newton =   1 [     569] linear =   135 [     72851] cuts =  0 [   0]
  --> max chng: dpmx=   1.5347E-03 dtmpmx=   4.9923E-05

 Wall Clock Time:  9.9301E+01 [sec]   1.6550E+00 [min]   2.7584E-02 [hr]
