
===================
  PFLOTRAN v3.0.1
===================

 Extent of Gridded Domain
  X: 2.5000000000000000 - 97.500000000000000
  Y: 2.5000000000000000 - 1277.5000000000000
  Z: 2.5000000000000000 - 2.5000000000000000


=+=+=+=+=+=+=+=+=+=+=+=+=+=+=+=+=+=+=+=+=+=+=+=+=+=+=+=+=+=+=+=+=+=+=+=+=+=+=+=+

  Initial Condition

--------------------------------------------------------------------------------
          Flow Condition:   initial
                  Region:   all
--------------------------------------------------------------------------------

  Flow Condition: initial
    Synchronize time with update: no
    Time units: yr
    Length units: m
      Datum:
        Dataset: Unnamed Ascii Dataset
          Type: dataset_ascii_type
          Transient: no
          Array Rank:  3

    Sub Condition: pressure
      Type: hydrostatic
      Gradient:
        Dataset: Unnamed Ascii Dataset
          Type: dataset_ascii_type
          Transient: no
          Array Rank:  3
      Data:
        Dataset: Unnamed Ascii Dataset
          Type: dataset_ascii_type
          Transient: no
          Array Rank:  1

    Sub Condition: temperature
      Type: dirichlet
      Gradient:
      Data:
        Dataset: Unnamed Ascii Dataset
          Type: dataset_ascii_type
          Transient: no
          Array Rank:  1

--------------------------------------------------------------------------------

=+=+=+=+=+=+=+=+=+=+=+=+=+=+=+=+=+=+=+=+=+=+=+=+=+=+=+=+=+=+=+=+=+=+=+=+=+=+=+=+

  Boundary Condition

--------------------------------------------------------------------------------
          Flow Condition:   initial
                  Region:   north
--------------------------------------------------------------------------------

  Flow Condition: initial
    Synchronize time with update: no
    Time units: yr
    Length units: m
      Datum:
        Dataset: Unnamed Ascii Dataset
          Type: dataset_ascii_type
          Transient: no
          Array Rank:  3

    Sub Condition: pressure
      Type: hydrostatic
      Gradient:
        Dataset: Unnamed Ascii Dataset
          Type: dataset_ascii_type
          Transient: no
          Array Rank:  3
      Data:
        Dataset: Unnamed Ascii Dataset
          Type: dataset_ascii_type
          Transient: no
          Array Rank:  1

    Sub Condition: temperature
      Type: dirichlet
      Gradient:
      Data:
        Dataset: Unnamed Ascii Dataset
          Type: dataset_ascii_type
          Transient: no
          Array Rank:  1

--------------------------------------------------------------------------------

=+=+=+=+=+=+=+=+=+=+=+=+=+=+=+=+=+=+=+=+=+=+=+=+=+=+=+=+=+=+=+=+=+=+=+=+=+=+=+=+

  Boundary Condition

--------------------------------------------------------------------------------
          Flow Condition:   initial
                  Region:   south
--------------------------------------------------------------------------------

  Flow Condition: initial
    Synchronize time with update: no
    Time units: yr
    Length units: m
      Datum:
        Dataset: Unnamed Ascii Dataset
          Type: dataset_ascii_type
          Transient: no
          Array Rank:  3

    Sub Condition: pressure
      Type: hydrostatic
      Gradient:
        Dataset: Unnamed Ascii Dataset
          Type: dataset_ascii_type
          Transient: no
          Array Rank:  3
      Data:
        Dataset: Unnamed Ascii Dataset
          Type: dataset_ascii_type
          Transient: no
          Array Rank:  1

    Sub Condition: temperature
      Type: dirichlet
      Gradient:
      Data:
        Dataset: Unnamed Ascii Dataset
          Type: dataset_ascii_type
          Transient: no
          Array Rank:  1

--------------------------------------------------------------------------------

=+=+=+=+=+=+=+=+=+=+=+=+=+=+=+=+=+=+=+=+=+=+=+=+=+=+=+=+=+=+=+=+=+=+=+=+=+=+=+=+

  Source Sink

--------------------------------------------------------------------------------
          Flow Condition:   injection
                  Region:   heatpump_inject0
--------------------------------------------------------------------------------

  Flow Condition: injection
    Synchronize time with update: no
    Time units: yr
    Length units: m
      Datum:

    Sub Condition: rate
      Type: scaled volumetric rate
      Gradient:
      Data:
        Dataset: Unnamed Ascii Dataset
          Type: dataset_ascii_type
          Is transient?: yes
          Number of times:      3
          Is cyclic?: no
          Buffer:
            Rank:  2
            Dims:    1   3
            Buffer Slice Size:   0
          Array Rank:  1

    Sub Condition: temperature
      Type: dirichlet
      Gradient:
      Data:
        Dataset: Unnamed Ascii Dataset
          Type: dataset_ascii_type
          Transient: no
          Array Rank:  1

--------------------------------------------------------------------------------

 Requested processors =    32

FLOW Time Stepper
                 acceleration: on
       acceleration threshold: 5
       number of ramp entries: 5
                ramp entry #1: 2.0000
                ramp entry #2: 2.0000
                ramp entry #3: 2.0000
                ramp entry #4: 2.0000
                ramp entry #5: 2.0000
                ramp entry #6: 1.8000
                ramp entry #7: 1.6000
                ramp entry #8: 1.4000
                ramp entry #9: 1.2000
               ramp entry #10: 1.0000
               ramp entry #11: 1.0000
               ramp entry #12: 1.0000
               ramp entry #13: 1.0000
      maximum number of steps: 999999
constant time steps threshold: 5
       maximum number of cuts: 16
             reduction factor: 5.000000E-01
        maximum growth factor: 2.000000E+00

FLOW Newton Solver
                         atol: 1.000000E-50
                         rtol: 1.000000E-03
                         stol: 1.000000E-08
                         dtol: 1.000000E+04
                      maxnorm: 1.000000E+20
                    inftolres: -9.990000E+02
                    inftolupd: 1.000000E+00
                 inftolrelupd: -9.990000E+02
                 inftolsclres: -9.990000E+02
                     max iter: 50
                     min iter: 1
                         maxf: 10000
                  matrix type: baij
         precond. matrix type: baij
               inexact newton: off
            print convergence: on
   print detailed convergence: off
          check infinity norm: on

FLOW Linear Solver
                       solver: bcgs
               preconditioner: bjacobi
                         atol: 1.000000E-50
                         rtol: 1.000000E-05
                         dtol: 1.000000E+04
            maximum iteration: 10000

== TH FLOW =====================================================================
 Step      1 Time=  1.00000E-05 Dt=  1.00000E-05 [y] snes_conv_reason:   11
  newton =   1 [       1] linear =   121 [       121] cuts =  0 [   0]
  --> max chng: dpmx=   4.1073E-02 dtmpmx=   4.7671E-09

== TH FLOW =====================================================================
 Step      2 Time=  3.00000E-05 Dt=  2.00000E-05 [y] snes_conv_reason:   11
  newton =   1 [       2] linear =   127 [       248] cuts =  0 [   0]
  --> max chng: dpmx=   1.0668E-02 dtmpmx=   9.4447E-09

== TH FLOW =====================================================================
 Step      3 Time=  7.00000E-05 Dt=  4.00000E-05 [y] snes_conv_reason:   11
  newton =   1 [       3] linear =   120 [       368] cuts =  0 [   0]
  --> max chng: dpmx=   1.4355E-03 dtmpmx=   1.8865E-08

== TH FLOW =====================================================================
 Step      4 Time=  1.50000E-04 Dt=  8.00000E-05 [y] snes_conv_reason:   11
  newton =   1 [       4] linear =   107 [       475] cuts =  0 [   0]
  --> max chng: dpmx=   9.9473E-05 dtmpmx=   3.7726E-08

== TH FLOW =====================================================================
 Step      5 Time=  3.10000E-04 Dt=  1.60000E-04 [y] snes_conv_reason:   11
  newton =   1 [       5] linear =   119 [       594] cuts =  0 [   0]
  --> max chng: dpmx=   3.4071E-06 dtmpmx=   7.5453E-08

== TH FLOW =====================================================================
 Step      6 Time=  6.30000E-04 Dt=  3.20000E-04 [y] snes_conv_reason:   11
  newton =   1 [       6] linear =   130 [       724] cuts =  0 [   0]
  --> max chng: dpmx=   4.0035E-07 dtmpmx=   1.5091E-07

== TH FLOW =====================================================================
 Step      7 Time=  1.27000E-03 Dt=  6.40000E-04 [y] snes_conv_reason:   11
  newton =   1 [       7] linear =   117 [       841] cuts =  0 [   0]
  --> max chng: dpmx=   8.1584E-07 dtmpmx=   3.0181E-07

== TH FLOW =====================================================================
 Step      8 Time=  2.55000E-03 Dt=  1.28000E-03 [y] snes_conv_reason:   11
  newton =   1 [       8] linear =   127 [       968] cuts =  0 [   0]
  --> max chng: dpmx=   1.6732E-06 dtmpmx=   6.0362E-07

== TH FLOW =====================================================================
 Step      9 Time=  5.11000E-03 Dt=  2.56000E-03 [y] snes_conv_reason:   11
  newton =   1 [       9] linear =   122 [      1090] cuts =  0 [   0]
  --> max chng: dpmx=   3.5099E-06 dtmpmx=   1.2072E-06

== TH FLOW =====================================================================
 Step     10 Time=  1.02300E-02 Dt=  5.12000E-03 [y] snes_conv_reason:   11
  newton =   1 [      10] linear =   124 [      1214] cuts =  0 [   0]
  --> max chng: dpmx=   7.6877E-06 dtmpmx=   2.4145E-06

== TH FLOW =====================================================================
 Step     11 Time=  2.04700E-02 Dt=  1.02400E-02 [y] snes_conv_reason:   11
  newton =   1 [      11] linear =   127 [      1341] cuts =  0 [   0]
  --> max chng: dpmx=   1.8044E-05 dtmpmx=   4.8290E-06

== TH FLOW =====================================================================
 Step     12 Time=  4.09500E-02 Dt=  2.04800E-02 [y] snes_conv_reason:   11
  newton =   1 [      12] linear =   122 [      1463] cuts =  0 [   0]
  --> max chng: dpmx=   4.6633E-05 dtmpmx=   9.6579E-06

== TH FLOW =====================================================================
 Step     13 Time=  8.19100E-02 Dt=  4.09600E-02 [y] snes_conv_reason:   11
  newton =   1 [      13] linear =   131 [      1594] cuts =  0 [   0]
  --> max chng: dpmx=   1.3484E-04 dtmpmx=   1.9316E-05

== TH FLOW =====================================================================
 Step     14 Time=  1.00000E-01 Dt=  1.80900E-02 [y] snes_conv_reason:   11
  newton =   1 [      14] linear =   131 [      1725] cuts =  0 [   0]
  --> max chng: dpmx=   6.7668E-05 dtmpmx=   8.5309E-06

== TH FLOW =====================================================================
 Step     15 Time=  1.50000E-01 Dt=  5.00000E-02 [y] snes_conv_reason:   11
  newton =   1 [      15] linear =   133 [      1858] cuts =  0 [   0]
  --> max chng: dpmx=   2.4794E-04 dtmpmx=   2.3579E-05

== TH FLOW =====================================================================
 Step     16 Time=  2.00000E-01 Dt=  5.00000E-02 [y] snes_conv_reason:   11
  newton =   1 [      16] linear =   134 [      1992] cuts =  0 [   0]
  --> max chng: dpmx=   3.0818E-04 dtmpmx=   2.3579E-05

== TH FLOW =====================================================================
 Step     17 Time=  2.50000E-01 Dt=  5.00000E-02 [y] snes_conv_reason:   11
  newton =   3 [      19] linear =   378 [      2370] cuts =  0 [   0]
  --> max chng: dpmx=   3.2816E+02 dtmpmx=   3.1065E+00

== TH FLOW =====================================================================
 Step     18 Time=  3.00000E-01 Dt=  5.00000E-02 [y] snes_conv_reason:   11
  newton =   2 [      21] linear =   269 [      2639] cuts =  0 [   0]
  --> max chng: dpmx=   2.6511E+00 dtmpmx=   1.2169E+00

== TH FLOW =====================================================================
 Step     19 Time=  3.50000E-01 Dt=  5.00000E-02 [y] snes_conv_reason:   11
  newton =   2 [      23] linear =   275 [      2914] cuts =  0 [   0]
  --> max chng: dpmx=   1.8942E+00 dtmpmx=   8.6232E-01

== TH FLOW =====================================================================
 Step     20 Time=  4.00000E-01 Dt=  5.00000E-02 [y] snes_conv_reason:   11
  newton =   2 [      25] linear =   271 [      3185] cuts =  0 [   0]
  --> max chng: dpmx=   1.7622E+00 dtmpmx=   7.0157E-01

== TH FLOW =====================================================================
 Step     21 Time=  4.50000E-01 Dt=  5.00000E-02 [y] snes_conv_reason:   11
  newton =   2 [      27] linear =   272 [      3457] cuts =  0 [   0]
  --> max chng: dpmx=   1.6754E+00 dtmpmx=   6.0044E-01

== TH FLOW =====================================================================
 Step     22 Time=  5.00000E-01 Dt=  5.00000E-02 [y] snes_conv_reason:   11
  newton =   2 [      29] linear =   271 [      3728] cuts =  0 [   0]
  --> max chng: dpmx=   1.6130E+00 dtmpmx=   5.2999E-01

== TH FLOW =====================================================================
 Step     23 Time=  5.50000E-01 Dt=  5.00000E-02 [y] snes_conv_reason:   11
  newton =   2 [      31] linear =   254 [      3982] cuts =  0 [   0]
  --> max chng: dpmx=   1.5625E+00 dtmpmx=   4.7751E-01

== TH FLOW =====================================================================
 Step     24 Time=  6.00000E-01 Dt=  5.00000E-02 [y] snes_conv_reason:    3
  newton =   1 [      32] linear =   137 [      4119] cuts =  0 [   0]
  --> max chng: dpmx=   1.5214E+00 dtmpmx=   4.3695E-01

== TH FLOW =====================================================================
 Step     25 Time=  6.50000E-01 Dt=  5.00000E-02 [y] snes_conv_reason:    3
  newton =   1 [      33] linear =   138 [      4257] cuts =  0 [   0]
  --> max chng: dpmx=   1.4882E+00 dtmpmx=   4.0672E-01

== TH FLOW =====================================================================
 Step     26 Time=  7.00000E-01 Dt=  5.00000E-02 [y] snes_conv_reason:    3
  newton =   1 [      34] linear =   137 [      4394] cuts =  0 [   0]
  --> max chng: dpmx=   1.4586E+00 dtmpmx=   3.8105E-01

== TH FLOW =====================================================================
 Step     27 Time=  7.50000E-01 Dt=  5.00000E-02 [y] snes_conv_reason:    3
  newton =   1 [      35] linear =   137 [      4531] cuts =  0 [   0]
  --> max chng: dpmx=   1.4330E+00 dtmpmx=   3.5892E-01

== TH FLOW =====================================================================
 Step     28 Time=  8.00000E-01 Dt=  5.00000E-02 [y] snes_conv_reason:    3
  newton =   1 [      36] linear =   136 [      4667] cuts =  0 [   0]
  --> max chng: dpmx=   1.4109E+00 dtmpmx=   3.3959E-01

== TH FLOW =====================================================================
 Step     29 Time=  8.50000E-01 Dt=  5.00000E-02 [y] snes_conv_reason:    3
  newton =   1 [      37] linear =   137 [      4804] cuts =  0 [   0]
  --> max chng: dpmx=   1.3892E+00 dtmpmx=   3.2250E-01

== TH FLOW =====================================================================
 Step     30 Time=  9.00000E-01 Dt=  5.00000E-02 [y] snes_conv_reason:    3
  newton =   1 [      38] linear =   136 [      4940] cuts =  0 [   0]
  --> max chng: dpmx=   1.3709E+00 dtmpmx=   3.0727E-01

== TH FLOW =====================================================================
 Step     31 Time=  9.50000E-01 Dt=  5.00000E-02 [y] snes_conv_reason:    3
  newton =   1 [      39] linear =   135 [      5075] cuts =  0 [   0]
  --> max chng: dpmx=   1.3527E+00 dtmpmx=   2.9358E-01

== TH FLOW =====================================================================
 Step     32 Time=  1.00000E+00 Dt=  5.00000E-02 [y] snes_conv_reason:    3
  newton =   1 [      40] linear =   134 [      5209] cuts =  0 [   0]
  --> max chng: dpmx=   1.3363E+00 dtmpmx=   2.8118E-01

== TH FLOW =====================================================================
 Step     33 Time=  1.05000E+00 Dt=  5.00000E-02 [y] snes_conv_reason:    3
  newton =   1 [      41] linear =   132 [      5341] cuts =  0 [   0]
  --> max chng: dpmx=   1.3215E+00 dtmpmx=   2.6989E-01

== TH FLOW =====================================================================
 Step     34 Time=  1.10000E+00 Dt=  5.00000E-02 [y] snes_conv_reason:    3
  newton =   1 [      42] linear =   134 [      5475] cuts =  0 [   0]
  --> max chng: dpmx=   1.3061E+00 dtmpmx=   2.5998E-01

== TH FLOW =====================================================================
 Step     35 Time=  1.15000E+00 Dt=  5.00000E-02 [y] snes_conv_reason:    3
  newton =   1 [      43] linear =   137 [      5612] cuts =  0 [   0]
  --> max chng: dpmx=   1.2920E+00 dtmpmx=   2.5110E-01

== TH FLOW =====================================================================
 Step     36 Time=  1.20000E+00 Dt=  5.00000E-02 [y] snes_conv_reason:    3
  newton =   1 [      44] linear =   133 [      5745] cuts =  0 [   0]
  --> max chng: dpmx=   1.2782E+00 dtmpmx=   2.4284E-01

== TH FLOW =====================================================================
 Step     37 Time=  1.25000E+00 Dt=  5.00000E-02 [y] snes_conv_reason:    3
  newton =   1 [      45] linear =   132 [      5877] cuts =  0 [   0]
  --> max chng: dpmx=   1.2664E+00 dtmpmx=   2.3512E-01

== TH FLOW =====================================================================
 Step     38 Time=  1.30000E+00 Dt=  5.00000E-02 [y] snes_conv_reason:    3
  newton =   1 [      46] linear =   136 [      6013] cuts =  0 [   0]
  --> max chng: dpmx=   1.2530E+00 dtmpmx=   2.2790E-01

== TH FLOW =====================================================================
 Step     39 Time=  1.35000E+00 Dt=  5.00000E-02 [y] snes_conv_reason:    3
  newton =   1 [      47] linear =   136 [      6149] cuts =  0 [   0]
  --> max chng: dpmx=   1.2412E+00 dtmpmx=   2.2111E-01

== TH FLOW =====================================================================
 Step     40 Time=  1.40000E+00 Dt=  5.00000E-02 [y] snes_conv_reason:    3
  newton =   1 [      48] linear =   133 [      6282] cuts =  0 [   0]
  --> max chng: dpmx=   1.2288E+00 dtmpmx=   2.1473E-01

== TH FLOW =====================================================================
 Step     41 Time=  1.45000E+00 Dt=  5.00000E-02 [y] snes_conv_reason:    3
  newton =   1 [      49] linear =   135 [      6417] cuts =  0 [   0]
  --> max chng: dpmx=   1.2176E+00 dtmpmx=   2.0871E-01

== TH FLOW =====================================================================
 Step     42 Time=  1.50000E+00 Dt=  5.00000E-02 [y] snes_conv_reason:    3
  newton =   1 [      50] linear =   129 [      6546] cuts =  0 [   0]
  --> max chng: dpmx=   1.2055E+00 dtmpmx=   2.0302E-01

== TH FLOW =====================================================================
 Step     43 Time=  1.55000E+00 Dt=  5.00000E-02 [y] snes_conv_reason:    3
  newton =   1 [      51] linear =   133 [      6679] cuts =  0 [   0]
  --> max chng: dpmx=   1.1959E+00 dtmpmx=   1.9764E-01

== TH FLOW =====================================================================
 Step     44 Time=  1.60000E+00 Dt=  5.00000E-02 [y] snes_conv_reason:    3
  newton =   1 [      52] linear =   134 [      6813] cuts =  0 [   0]
  --> max chng: dpmx=   1.1842E+00 dtmpmx=   1.9256E-01

== TH FLOW =====================================================================
 Step     45 Time=  1.65000E+00 Dt=  5.00000E-02 [y] snes_conv_reason:    3
  newton =   1 [      53] linear =   133 [      6946] cuts =  0 [   0]
  --> max chng: dpmx=   1.1736E+00 dtmpmx=   1.8802E-01

== TH FLOW =====================================================================
 Step     46 Time=  1.70000E+00 Dt=  5.00000E-02 [y] snes_conv_reason:    3
  newton =   1 [      54] linear =   132 [      7078] cuts =  0 [   0]
  --> max chng: dpmx=   1.1631E+00 dtmpmx=   1.8369E-01

== TH FLOW =====================================================================
 Step     47 Time=  1.75000E+00 Dt=  5.00000E-02 [y] snes_conv_reason:    3
  newton =   1 [      55] linear =   124 [      7202] cuts =  0 [   0]
  --> max chng: dpmx=   1.1522E+00 dtmpmx=   1.7955E-01

== TH FLOW =====================================================================
 Step     48 Time=  1.80000E+00 Dt=  5.00000E-02 [y] snes_conv_reason:    3
  newton =   1 [      56] linear =   133 [      7335] cuts =  0 [   0]
  --> max chng: dpmx=   1.1429E+00 dtmpmx=   1.7558E-01

== TH FLOW =====================================================================
 Step     49 Time=  1.85000E+00 Dt=  5.00000E-02 [y] snes_conv_reason:    3
  newton =   1 [      57] linear =   132 [      7467] cuts =  0 [   0]
  --> max chng: dpmx=   1.1328E+00 dtmpmx=   1.7177E-01

== TH FLOW =====================================================================
 Step     50 Time=  1.90000E+00 Dt=  5.00000E-02 [y] snes_conv_reason:    3
  newton =   1 [      58] linear =   129 [      7596] cuts =  0 [   0]
  --> max chng: dpmx=   1.1221E+00 dtmpmx=   1.6812E-01

== TH FLOW =====================================================================
 Step     51 Time=  1.95000E+00 Dt=  5.00000E-02 [y] snes_conv_reason:    3
  newton =   1 [      59] linear =   134 [      7730] cuts =  0 [   0]
  --> max chng: dpmx=   1.1130E+00 dtmpmx=   1.6461E-01

== TH FLOW =====================================================================
 Step     52 Time=  2.00000E+00 Dt=  5.00000E-02 [y] snes_conv_reason:    3
  newton =   1 [      60] linear =   134 [      7864] cuts =  0 [   0]
  --> max chng: dpmx=   1.1034E+00 dtmpmx=   1.6124E-01

== TH FLOW =====================================================================
 Step     53 Time=  2.05000E+00 Dt=  5.00000E-02 [y] snes_conv_reason:    3
  newton =   1 [      61] linear =   127 [      7991] cuts =  0 [   0]
  --> max chng: dpmx=   1.0931E+00 dtmpmx=   1.5800E-01

== TH FLOW =====================================================================
 Step     54 Time=  2.10000E+00 Dt=  5.00000E-02 [y] snes_conv_reason:    3
  newton =   1 [      62] linear =   132 [      8123] cuts =  0 [   0]
  --> max chng: dpmx=   1.0837E+00 dtmpmx=   1.5487E-01

== TH FLOW =====================================================================
 Step     55 Time=  2.15000E+00 Dt=  5.00000E-02 [y] snes_conv_reason:    3
  newton =   1 [      63] linear =   135 [      8258] cuts =  0 [   0]
  --> max chng: dpmx=   1.0748E+00 dtmpmx=   1.5190E-01

== TH FLOW =====================================================================
 Step     56 Time=  2.20000E+00 Dt=  5.00000E-02 [y] snes_conv_reason:    3
  newton =   1 [      64] linear =   134 [      8392] cuts =  0 [   0]
  --> max chng: dpmx=   1.0651E+00 dtmpmx=   1.4918E-01

== TH FLOW =====================================================================
 Step     57 Time=  2.25000E+00 Dt=  5.00000E-02 [y] snes_conv_reason:    3
  newton =   1 [      65] linear =   135 [      8527] cuts =  0 [   0]
  --> max chng: dpmx=   1.0557E+00 dtmpmx=   1.4655E-01

== TH FLOW =====================================================================
 Step     58 Time=  2.30000E+00 Dt=  5.00000E-02 [y] snes_conv_reason:    3
  newton =   1 [      66] linear =   128 [      8655] cuts =  0 [   0]
  --> max chng: dpmx=   1.0466E+00 dtmpmx=   1.4399E-01

== TH FLOW =====================================================================
 Step     59 Time=  2.35000E+00 Dt=  5.00000E-02 [y] snes_conv_reason:    3
  newton =   1 [      67] linear =   130 [      8785] cuts =  0 [   0]
  --> max chng: dpmx=   1.0374E+00 dtmpmx=   1.4152E-01

== TH FLOW =====================================================================
 Step     60 Time=  2.40000E+00 Dt=  5.00000E-02 [y] snes_conv_reason:    3
  newton =   1 [      68] linear =   134 [      8919] cuts =  0 [   0]
  --> max chng: dpmx=   1.0284E+00 dtmpmx=   1.3912E-01

== TH FLOW =====================================================================
 Step     61 Time=  2.45000E+00 Dt=  5.00000E-02 [y] snes_conv_reason:    3
  newton =   1 [      69] linear =   125 [      9044] cuts =  0 [   0]
  --> max chng: dpmx=   1.0193E+00 dtmpmx=   1.3680E-01

== TH FLOW =====================================================================
 Step     62 Time=  2.50000E+00 Dt=  5.00000E-02 [y] snes_conv_reason:    3
  newton =   1 [      70] linear =   128 [      9172] cuts =  0 [   0]
  --> max chng: dpmx=   1.0100E+00 dtmpmx=   1.3454E-01

== TH FLOW =====================================================================
 Step     63 Time=  2.55000E+00 Dt=  5.00000E-02 [y] snes_conv_reason:    3
  newton =   1 [      71] linear =   135 [      9307] cuts =  0 [   0]
  --> max chng: dpmx=   1.0016E+00 dtmpmx=   1.3235E-01

== TH FLOW =====================================================================
 Step     64 Time=  2.60000E+00 Dt=  5.00000E-02 [y] snes_conv_reason:   11
  newton =   1 [      72] linear =   133 [      9440] cuts =  0 [   0]
  --> max chng: dpmx=   9.9279E-01 dtmpmx=   1.3022E-01

== TH FLOW =====================================================================
 Step     65 Time=  2.65000E+00 Dt=  5.00000E-02 [y] snes_conv_reason:   11
  newton =   1 [      73] linear =   130 [      9570] cuts =  0 [   0]
  --> max chng: dpmx=   9.8333E-01 dtmpmx=   1.2816E-01

== TH FLOW =====================================================================
 Step     66 Time=  2.70000E+00 Dt=  5.00000E-02 [y] snes_conv_reason:   11
  newton =   1 [      74] linear =   133 [      9703] cuts =  0 [   0]
  --> max chng: dpmx=   9.7489E-01 dtmpmx=   1.2617E-01

== TH FLOW =====================================================================
 Step     67 Time=  2.75000E+00 Dt=  5.00000E-02 [y] snes_conv_reason:   11
  newton =   1 [      75] linear =   130 [      9833] cuts =  0 [   0]
  --> max chng: dpmx=   9.6556E-01 dtmpmx=   1.2433E-01

== TH FLOW =====================================================================
 Step     68 Time=  2.80000E+00 Dt=  5.00000E-02 [y] snes_conv_reason:   11
  newton =   1 [      76] linear =   132 [      9965] cuts =  0 [   0]
  --> max chng: dpmx=   9.5755E-01 dtmpmx=   1.2254E-01

== TH FLOW =====================================================================
 Step     69 Time=  2.85000E+00 Dt=  5.00000E-02 [y] snes_conv_reason:   11
  newton =   1 [      77] linear =   129 [     10094] cuts =  0 [   0]
  --> max chng: dpmx=   9.4905E-01 dtmpmx=   1.2080E-01

== TH FLOW =====================================================================
 Step     70 Time=  2.90000E+00 Dt=  5.00000E-02 [y] snes_conv_reason:   11
  newton =   1 [      78] linear =   129 [     10223] cuts =  0 [   0]
  --> max chng: dpmx=   9.3985E-01 dtmpmx=   1.1910E-01

== TH FLOW =====================================================================
 Step     71 Time=  2.95000E+00 Dt=  5.00000E-02 [y] snes_conv_reason:   11
  newton =   1 [      79] linear =   132 [     10355] cuts =  0 [   0]
  --> max chng: dpmx=   9.3117E-01 dtmpmx=   1.1743E-01

== TH FLOW =====================================================================
 Step     72 Time=  3.00000E+00 Dt=  5.00000E-02 [y] snes_conv_reason:   11
  newton =   1 [      80] linear =   131 [     10486] cuts =  0 [   0]
  --> max chng: dpmx=   9.2271E-01 dtmpmx=   1.1581E-01

== TH FLOW =====================================================================
 Step     73 Time=  3.05000E+00 Dt=  5.00000E-02 [y] snes_conv_reason:   11
  newton =   1 [      81] linear =   126 [     10612] cuts =  0 [   0]
  --> max chng: dpmx=   9.1436E-01 dtmpmx=   1.1423E-01

== TH FLOW =====================================================================
 Step     74 Time=  3.10000E+00 Dt=  5.00000E-02 [y] snes_conv_reason:   11
  newton =   1 [      82] linear =   126 [     10738] cuts =  0 [   0]
  --> max chng: dpmx=   9.0537E-01 dtmpmx=   1.1268E-01

== TH FLOW =====================================================================
 Step     75 Time=  3.15000E+00 Dt=  5.00000E-02 [y] snes_conv_reason:   11
  newton =   1 [      83] linear =   131 [     10869] cuts =  0 [   0]
  --> max chng: dpmx=   8.9741E-01 dtmpmx=   1.1117E-01

== TH FLOW =====================================================================
 Step     76 Time=  3.20000E+00 Dt=  5.00000E-02 [y] snes_conv_reason:   11
  newton =   1 [      84] linear =   131 [     11000] cuts =  0 [   0]
  --> max chng: dpmx=   8.8890E-01 dtmpmx=   1.0969E-01

== TH FLOW =====================================================================
 Step     77 Time=  3.25000E+00 Dt=  5.00000E-02 [y] snes_conv_reason:   11
  newton =   1 [      85] linear =   124 [     11124] cuts =  0 [   0]
  --> max chng: dpmx=   8.8038E-01 dtmpmx=   1.0825E-01

== TH FLOW =====================================================================
 Step     78 Time=  3.30000E+00 Dt=  5.00000E-02 [y] snes_conv_reason:   11
  newton =   1 [      86] linear =   129 [     11253] cuts =  0 [   0]
  --> max chng: dpmx=   8.7182E-01 dtmpmx=   1.0692E-01

== TH FLOW =====================================================================
 Step     79 Time=  3.35000E+00 Dt=  5.00000E-02 [y] snes_conv_reason:   11
  newton =   1 [      87] linear =   132 [     11385] cuts =  0 [   0]
  --> max chng: dpmx=   8.6308E-01 dtmpmx=   1.0562E-01

== TH FLOW =====================================================================
 Step     80 Time=  3.40000E+00 Dt=  5.00000E-02 [y] snes_conv_reason:   11
  newton =   1 [      88] linear =   133 [     11518] cuts =  0 [   0]
  --> max chng: dpmx=   8.5534E-01 dtmpmx=   1.0435E-01

== TH FLOW =====================================================================
 Step     81 Time=  3.45000E+00 Dt=  5.00000E-02 [y] snes_conv_reason:   11
  newton =   1 [      89] linear =   136 [     11654] cuts =  0 [   0]
  --> max chng: dpmx=   8.4667E-01 dtmpmx=   1.0310E-01

== TH FLOW =====================================================================
 Step     82 Time=  3.50000E+00 Dt=  5.00000E-02 [y] snes_conv_reason:   11
  newton =   1 [      90] linear =   139 [     11793] cuts =  0 [   0]
  --> max chng: dpmx=   8.3842E-01 dtmpmx=   1.0187E-01

== TH FLOW =====================================================================
 Step     83 Time=  3.55000E+00 Dt=  5.00000E-02 [y] snes_conv_reason:   11
  newton =   1 [      91] linear =   133 [     11926] cuts =  0 [   0]
  --> max chng: dpmx=   8.3026E-01 dtmpmx=   1.0067E-01

== TH FLOW =====================================================================
 Step     84 Time=  3.60000E+00 Dt=  5.00000E-02 [y] snes_conv_reason:   11
  newton =   1 [      92] linear =   130 [     12056] cuts =  0 [   0]
  --> max chng: dpmx=   8.2192E-01 dtmpmx=   9.9493E-02

== TH FLOW =====================================================================
 Step     85 Time=  3.65000E+00 Dt=  5.00000E-02 [y] snes_conv_reason:   11
  newton =   1 [      93] linear =   124 [     12180] cuts =  0 [   0]
  --> max chng: dpmx=   8.1362E-01 dtmpmx=   9.8337E-02

== TH FLOW =====================================================================
 Step     86 Time=  3.70000E+00 Dt=  5.00000E-02 [y] snes_conv_reason:   11
  newton =   1 [      94] linear =   126 [     12306] cuts =  0 [   0]
  --> max chng: dpmx=   8.0512E-01 dtmpmx=   9.7204E-02

== TH FLOW =====================================================================
 Step     87 Time=  3.75000E+00 Dt=  5.00000E-02 [y] snes_conv_reason:   11
  newton =   1 [      95] linear =   132 [     12438] cuts =  0 [   0]
  --> max chng: dpmx=   7.9695E-01 dtmpmx=   9.6092E-02

== TH FLOW =====================================================================
 Step     88 Time=  3.80000E+00 Dt=  5.00000E-02 [y] snes_conv_reason:   11
  newton =   1 [      96] linear =   131 [     12569] cuts =  0 [   0]
  --> max chng: dpmx=   7.8902E-01 dtmpmx=   9.5000E-02

== TH FLOW =====================================================================
 Step     89 Time=  3.85000E+00 Dt=  5.00000E-02 [y] snes_conv_reason:   11
  newton =   1 [      97] linear =   133 [     12702] cuts =  0 [   0]
  --> max chng: dpmx=   7.8066E-01 dtmpmx=   9.3989E-02

== TH FLOW =====================================================================
 Step     90 Time=  3.90000E+00 Dt=  5.00000E-02 [y] snes_conv_reason:   11
  newton =   1 [      98] linear =   130 [     12832] cuts =  0 [   0]
  --> max chng: dpmx=   7.7253E-01 dtmpmx=   9.2998E-02

== TH FLOW =====================================================================
 Step     91 Time=  3.95000E+00 Dt=  5.00000E-02 [y] snes_conv_reason:   11
  newton =   1 [      99] linear =   129 [     12961] cuts =  0 [   0]
  --> max chng: dpmx=   7.6448E-01 dtmpmx=   9.2023E-02

== TH FLOW =====================================================================
 Step     92 Time=  4.00000E+00 Dt=  5.00000E-02 [y] snes_conv_reason:   11
  newton =   1 [     100] linear =   123 [     13084] cuts =  0 [   0]
  --> max chng: dpmx=   7.5630E-01 dtmpmx=   9.1064E-02

== TH FLOW =====================================================================
 Step     93 Time=  4.05000E+00 Dt=  5.00000E-02 [y] snes_conv_reason:   11
  newton =   1 [     101] linear =   130 [     13214] cuts =  0 [   0]
  --> max chng: dpmx=   7.4777E-01 dtmpmx=   9.0121E-02

== TH FLOW =====================================================================
 Step     94 Time=  4.10000E+00 Dt=  5.00000E-02 [y] snes_conv_reason:   11
  newton =   1 [     102] linear =   126 [     13340] cuts =  0 [   0]
  --> max chng: dpmx=   7.3986E-01 dtmpmx=   8.9194E-02

== TH FLOW =====================================================================
 Step     95 Time=  4.15000E+00 Dt=  5.00000E-02 [y] snes_conv_reason:   11
  newton =   1 [     103] linear =   130 [     13470] cuts =  0 [   0]
  --> max chng: dpmx=   7.3190E-01 dtmpmx=   8.8281E-02

== TH FLOW =====================================================================
 Step     96 Time=  4.20000E+00 Dt=  5.00000E-02 [y] snes_conv_reason:   11
  newton =   1 [     104] linear =   130 [     13600] cuts =  0 [   0]
  --> max chng: dpmx=   7.2389E-01 dtmpmx=   8.7384E-02

== TH FLOW =====================================================================
 Step     97 Time=  4.25000E+00 Dt=  5.00000E-02 [y] snes_conv_reason:   11
  newton =   1 [     105] linear =   130 [     13730] cuts =  0 [   0]
  --> max chng: dpmx=   7.1568E-01 dtmpmx=   8.6500E-02

== TH FLOW =====================================================================
 Step     98 Time=  4.30000E+00 Dt=  5.00000E-02 [y] snes_conv_reason:   11
  newton =   1 [     106] linear =   125 [     13855] cuts =  0 [   0]
  --> max chng: dpmx=   7.0767E-01 dtmpmx=   8.5631E-02

== TH FLOW =====================================================================
 Step     99 Time=  4.35000E+00 Dt=  5.00000E-02 [y] snes_conv_reason:   11
  newton =   1 [     107] linear =   126 [     13981] cuts =  0 [   0]
  --> max chng: dpmx=   6.9933E-01 dtmpmx=   8.4775E-02

== TH FLOW =====================================================================
 Step    100 Time=  4.40000E+00 Dt=  5.00000E-02 [y] snes_conv_reason:   11
  newton =   1 [     108] linear =   131 [     14112] cuts =  0 [   0]
  --> max chng: dpmx=   6.9144E-01 dtmpmx=   8.3972E-02

== TH FLOW =====================================================================
 Step    101 Time=  4.45000E+00 Dt=  5.00000E-02 [y] snes_conv_reason:   11
  newton =   1 [     109] linear =   130 [     14242] cuts =  0 [   0]
  --> max chng: dpmx=   6.8353E-01 dtmpmx=   8.3191E-02

== TH FLOW =====================================================================
 Step    102 Time=  4.50000E+00 Dt=  5.00000E-02 [y] snes_conv_reason:   11
  newton =   1 [     110] linear =   129 [     14371] cuts =  0 [   0]
  --> max chng: dpmx=   6.7519E-01 dtmpmx=   8.2420E-02

== TH FLOW =====================================================================
 Step    103 Time=  4.55000E+00 Dt=  5.00000E-02 [y] snes_conv_reason:   11
  newton =   1 [     111] linear =   130 [     14501] cuts =  0 [   0]
  --> max chng: dpmx=   6.6758E-01 dtmpmx=   8.1660E-02

== TH FLOW =====================================================================
 Step    104 Time=  4.60000E+00 Dt=  5.00000E-02 [y] snes_conv_reason:   11
  newton =   1 [     112] linear =   132 [     14633] cuts =  0 [   0]
  --> max chng: dpmx=   6.5960E-01 dtmpmx=   8.0910E-02

== TH FLOW =====================================================================
 Step    105 Time=  4.65000E+00 Dt=  5.00000E-02 [y] snes_conv_reason:   11
  newton =   1 [     113] linear =   132 [     14765] cuts =  0 [   0]
  --> max chng: dpmx=   6.5144E-01 dtmpmx=   8.0171E-02

== TH FLOW =====================================================================
 Step    106 Time=  4.70000E+00 Dt=  5.00000E-02 [y] snes_conv_reason:   11
  newton =   1 [     114] linear =   130 [     14895] cuts =  0 [   0]
  --> max chng: dpmx=   6.4342E-01 dtmpmx=   7.9442E-02

== TH FLOW =====================================================================
 Step    107 Time=  4.75000E+00 Dt=  5.00000E-02 [y] snes_conv_reason:   11
  newton =   1 [     115] linear =   132 [     15027] cuts =  0 [   0]
  --> max chng: dpmx=   6.3549E-01 dtmpmx=   7.8723E-02

== TH FLOW =====================================================================
 Step    108 Time=  4.80000E+00 Dt=  5.00000E-02 [y] snes_conv_reason:   11
  newton =   1 [     116] linear =   133 [     15160] cuts =  0 [   0]
  --> max chng: dpmx=   6.3490E-01 dtmpmx=   7.8014E-02

== TH FLOW =====================================================================
 Step    109 Time=  4.85000E+00 Dt=  5.00000E-02 [y] snes_conv_reason:   11
  newton =   1 [     117] linear =   129 [     15289] cuts =  0 [   0]
  --> max chng: dpmx=   6.4082E-01 dtmpmx=   7.7315E-02

== TH FLOW =====================================================================
 Step    110 Time=  4.90000E+00 Dt=  5.00000E-02 [y] snes_conv_reason:   11
  newton =   1 [     118] linear =   125 [     15414] cuts =  0 [   0]
  --> max chng: dpmx=   6.4671E-01 dtmpmx=   7.6625E-02

== TH FLOW =====================================================================
 Step    111 Time=  4.95000E+00 Dt=  5.00000E-02 [y] snes_conv_reason:   11
  newton =   1 [     119] linear =   126 [     15540] cuts =  0 [   0]
  --> max chng: dpmx=   6.5253E-01 dtmpmx=   7.5970E-02

== TH FLOW =====================================================================
 Step    112 Time=  5.00000E+00 Dt=  5.00000E-02 [y] snes_conv_reason:   11
  newton =   1 [     120] linear =   130 [     15670] cuts =  0 [   0]
  --> max chng: dpmx=   6.5843E-01 dtmpmx=   7.5337E-02

== TH FLOW =====================================================================
 Step    113 Time=  5.05000E+00 Dt=  5.00000E-02 [y] snes_conv_reason:   11
  newton =   1 [     121] linear =   129 [     15799] cuts =  0 [   0]
  --> max chng: dpmx=   6.6435E-01 dtmpmx=   7.4711E-02

== TH FLOW =====================================================================
 Step    114 Time=  5.10000E+00 Dt=  5.00000E-02 [y] snes_conv_reason:   11
  newton =   1 [     122] linear =   134 [     15933] cuts =  0 [   0]
  --> max chng: dpmx=   6.7048E-01 dtmpmx=   7.4093E-02

== TH FLOW =====================================================================
 Step    115 Time=  5.15000E+00 Dt=  5.00000E-02 [y] snes_conv_reason:   11
  newton =   1 [     123] linear =   133 [     16066] cuts =  0 [   0]
  --> max chng: dpmx=   6.7631E-01 dtmpmx=   7.3482E-02

== TH FLOW =====================================================================
 Step    116 Time=  5.20000E+00 Dt=  5.00000E-02 [y] snes_conv_reason:   11
  newton =   1 [     124] linear =   129 [     16195] cuts =  0 [   0]
  --> max chng: dpmx=   6.8219E-01 dtmpmx=   7.2878E-02

== TH FLOW =====================================================================
 Step    117 Time=  5.25000E+00 Dt=  5.00000E-02 [y] snes_conv_reason:   11
  newton =   1 [     125] linear =   129 [     16324] cuts =  0 [   0]
  --> max chng: dpmx=   6.8830E-01 dtmpmx=   7.2282E-02

== TH FLOW =====================================================================
 Step    118 Time=  5.30000E+00 Dt=  5.00000E-02 [y] snes_conv_reason:   11
  newton =   1 [     126] linear =   133 [     16457] cuts =  0 [   0]
  --> max chng: dpmx=   6.9422E-01 dtmpmx=   7.1692E-02

== TH FLOW =====================================================================
 Step    119 Time=  5.35000E+00 Dt=  5.00000E-02 [y] snes_conv_reason:   11
  newton =   1 [     127] linear =   128 [     16585] cuts =  0 [   0]
  --> max chng: dpmx=   7.0021E-01 dtmpmx=   7.1110E-02

== TH FLOW =====================================================================
 Step    120 Time=  5.40000E+00 Dt=  5.00000E-02 [y] snes_conv_reason:   11
  newton =   1 [     128] linear =   131 [     16716] cuts =  0 [   0]
  --> max chng: dpmx=   7.0619E-01 dtmpmx=   7.0534E-02

== TH FLOW =====================================================================
 Step    121 Time=  5.45000E+00 Dt=  5.00000E-02 [y] snes_conv_reason:   11
  newton =   1 [     129] linear =   128 [     16844] cuts =  0 [   0]
  --> max chng: dpmx=   7.1221E-01 dtmpmx=   6.9965E-02

== TH FLOW =====================================================================
 Step    122 Time=  5.50000E+00 Dt=  5.00000E-02 [y] snes_conv_reason:   11
  newton =   1 [     130] linear =   132 [     16976] cuts =  0 [   0]
  --> max chng: dpmx=   7.1818E-01 dtmpmx=   6.9419E-02

== TH FLOW =====================================================================
 Step    123 Time=  5.55000E+00 Dt=  5.00000E-02 [y] snes_conv_reason:   11
  newton =   1 [     131] linear =   132 [     17108] cuts =  0 [   0]
  --> max chng: dpmx=   7.2421E-01 dtmpmx=   6.8895E-02

== TH FLOW =====================================================================
 Step    124 Time=  5.60000E+00 Dt=  5.00000E-02 [y] snes_conv_reason:   11
  newton =   1 [     132] linear =   133 [     17241] cuts =  0 [   0]
  --> max chng: dpmx=   7.3031E-01 dtmpmx=   6.8376E-02

== TH FLOW =====================================================================
 Step    125 Time=  5.65000E+00 Dt=  5.00000E-02 [y] snes_conv_reason:   11
  newton =   1 [     133] linear =   133 [     17374] cuts =  0 [   0]
  --> max chng: dpmx=   7.3632E-01 dtmpmx=   6.7862E-02

== TH FLOW =====================================================================
 Step    126 Time=  5.70000E+00 Dt=  5.00000E-02 [y] snes_conv_reason:   11
  newton =   1 [     134] linear =   132 [     17506] cuts =  0 [   0]
  --> max chng: dpmx=   7.4244E-01 dtmpmx=   6.7354E-02

== TH FLOW =====================================================================
 Step    127 Time=  5.75000E+00 Dt=  5.00000E-02 [y] snes_conv_reason:   11
  newton =   1 [     135] linear =   128 [     17634] cuts =  0 [   0]
  --> max chng: dpmx=   7.4832E-01 dtmpmx=   6.6851E-02

== TH FLOW =====================================================================
 Step    128 Time=  5.80000E+00 Dt=  5.00000E-02 [y] snes_conv_reason:   11
  newton =   1 [     136] linear =   136 [     17770] cuts =  0 [   0]
  --> max chng: dpmx=   7.5461E-01 dtmpmx=   6.6354E-02

== TH FLOW =====================================================================
 Step    129 Time=  5.85000E+00 Dt=  5.00000E-02 [y] snes_conv_reason:   11
  newton =   1 [     137] linear =   127 [     17897] cuts =  0 [   0]
  --> max chng: dpmx=   7.6046E-01 dtmpmx=   6.5861E-02

== TH FLOW =====================================================================
 Step    130 Time=  5.90000E+00 Dt=  5.00000E-02 [y] snes_conv_reason:   11
  newton =   1 [     138] linear =   133 [     18030] cuts =  0 [   0]
  --> max chng: dpmx=   7.6672E-01 dtmpmx=   6.5373E-02

== TH FLOW =====================================================================
 Step    131 Time=  5.95000E+00 Dt=  5.00000E-02 [y] snes_conv_reason:   11
  newton =   1 [     139] linear =   132 [     18162] cuts =  0 [   0]
  --> max chng: dpmx=   7.7277E-01 dtmpmx=   6.4890E-02

== TH FLOW =====================================================================
 Step    132 Time=  6.00000E+00 Dt=  5.00000E-02 [y] snes_conv_reason:   11
  newton =   1 [     140] linear =   133 [     18295] cuts =  0 [   0]
  --> max chng: dpmx=   7.7882E-01 dtmpmx=   6.4413E-02

== TH FLOW =====================================================================
 Step    133 Time=  6.05000E+00 Dt=  5.00000E-02 [y] snes_conv_reason:   11
  newton =   1 [     141] linear =   128 [     18423] cuts =  0 [   0]
  --> max chng: dpmx=   7.8505E-01 dtmpmx=   6.3950E-02

== TH FLOW =====================================================================
 Step    134 Time=  6.10000E+00 Dt=  5.00000E-02 [y] snes_conv_reason:   11
  newton =   1 [     142] linear =   135 [     18558] cuts =  0 [   0]
  --> max chng: dpmx=   7.9102E-01 dtmpmx=   6.3508E-02

== TH FLOW =====================================================================
 Step    135 Time=  6.15000E+00 Dt=  5.00000E-02 [y] snes_conv_reason:   11
  newton =   1 [     143] linear =   131 [     18689] cuts =  0 [   0]
  --> max chng: dpmx=   7.9725E-01 dtmpmx=   6.3070E-02

== TH FLOW =====================================================================
 Step    136 Time=  6.20000E+00 Dt=  5.00000E-02 [y] snes_conv_reason:   11
  newton =   1 [     144] linear =   126 [     18815] cuts =  0 [   0]
  --> max chng: dpmx=   8.0329E-01 dtmpmx=   6.2637E-02

== TH FLOW =====================================================================
 Step    137 Time=  6.25000E+00 Dt=  5.00000E-02 [y] snes_conv_reason:   11
  newton =   1 [     145] linear =   125 [     18940] cuts =  0 [   0]
  --> max chng: dpmx=   8.0941E-01 dtmpmx=   6.2207E-02

== TH FLOW =====================================================================
 Step    138 Time=  6.30000E+00 Dt=  5.00000E-02 [y] snes_conv_reason:   11
  newton =   1 [     146] linear =   124 [     19064] cuts =  0 [   0]
  --> max chng: dpmx=   8.1581E-01 dtmpmx=   6.1781E-02

== TH FLOW =====================================================================
 Step    139 Time=  6.35000E+00 Dt=  5.00000E-02 [y] snes_conv_reason:   11
  newton =   1 [     147] linear =   125 [     19189] cuts =  0 [   0]
  --> max chng: dpmx=   8.2184E-01 dtmpmx=   6.1359E-02

== TH FLOW =====================================================================
 Step    140 Time=  6.40000E+00 Dt=  5.00000E-02 [y] snes_conv_reason:   11
  newton =   1 [     148] linear =   128 [     19317] cuts =  0 [   0]
  --> max chng: dpmx=   8.2784E-01 dtmpmx=   6.0940E-02

== TH FLOW =====================================================================
 Step    141 Time=  6.45000E+00 Dt=  5.00000E-02 [y] snes_conv_reason:   11
  newton =   1 [     149] linear =   127 [     19444] cuts =  0 [   0]
  --> max chng: dpmx=   8.3395E-01 dtmpmx=   6.0526E-02

== TH FLOW =====================================================================
 Step    142 Time=  6.50000E+00 Dt=  5.00000E-02 [y] snes_conv_reason:   11
  newton =   1 [     150] linear =   125 [     19569] cuts =  0 [   0]
  --> max chng: dpmx=   8.4050E-01 dtmpmx=   6.0115E-02

== TH FLOW =====================================================================
 Step    143 Time=  6.55000E+00 Dt=  5.00000E-02 [y] snes_conv_reason:   11
  newton =   1 [     151] linear =   126 [     19695] cuts =  0 [   0]
  --> max chng: dpmx=   8.4630E-01 dtmpmx=   5.9707E-02

== TH FLOW =====================================================================
 Step    144 Time=  6.60000E+00 Dt=  5.00000E-02 [y] snes_conv_reason:   11
  newton =   1 [     152] linear =   126 [     19821] cuts =  0 [   0]
  --> max chng: dpmx=   8.5255E-01 dtmpmx=   5.9309E-02

== TH FLOW =====================================================================
 Step    145 Time=  6.65000E+00 Dt=  5.00000E-02 [y] snes_conv_reason:   11
  newton =   1 [     153] linear =   131 [     19952] cuts =  0 [   0]
  --> max chng: dpmx=   8.5900E-01 dtmpmx=   5.8932E-02

== TH FLOW =====================================================================
 Step    146 Time=  6.70000E+00 Dt=  5.00000E-02 [y] snes_conv_reason:   11
  newton =   1 [     154] linear =   132 [     20084] cuts =  0 [   0]
  --> max chng: dpmx=   8.6493E-01 dtmpmx=   5.8557E-02

== TH FLOW =====================================================================
 Step    147 Time=  6.75000E+00 Dt=  5.00000E-02 [y] snes_conv_reason:   11
  newton =   1 [     155] linear =   126 [     20210] cuts =  0 [   0]
  --> max chng: dpmx=   8.7125E-01 dtmpmx=   5.8186E-02

== TH FLOW =====================================================================
 Step    148 Time=  6.80000E+00 Dt=  5.00000E-02 [y] snes_conv_reason:   11
  newton =   1 [     156] linear =   128 [     20338] cuts =  0 [   0]
  --> max chng: dpmx=   8.7731E-01 dtmpmx=   5.7817E-02

== TH FLOW =====================================================================
 Step    149 Time=  6.85000E+00 Dt=  5.00000E-02 [y] snes_conv_reason:   11
  newton =   1 [     157] linear =   122 [     20460] cuts =  0 [   0]
  --> max chng: dpmx=   8.8384E-01 dtmpmx=   5.7451E-02

== TH FLOW =====================================================================
 Step    150 Time=  6.90000E+00 Dt=  5.00000E-02 [y] snes_conv_reason:   11
  newton =   1 [     158] linear =   131 [     20591] cuts =  0 [   0]
  --> max chng: dpmx=   8.8995E-01 dtmpmx=   5.7088E-02

== TH FLOW =====================================================================
 Step    151 Time=  6.95000E+00 Dt=  5.00000E-02 [y] snes_conv_reason:   11
  newton =   1 [     159] linear =   126 [     20717] cuts =  0 [   0]
  --> max chng: dpmx=   8.9614E-01 dtmpmx=   5.6728E-02

== TH FLOW =====================================================================
 Step    152 Time=  7.00000E+00 Dt=  5.00000E-02 [y] snes_conv_reason:   11
  newton =   1 [     160] linear =   132 [     20849] cuts =  0 [   0]
  --> max chng: dpmx=   9.0235E-01 dtmpmx=   5.6371E-02

== TH FLOW =====================================================================
 Step    153 Time=  7.05000E+00 Dt=  5.00000E-02 [y] snes_conv_reason:   11
  newton =   1 [     161] linear =   126 [     20975] cuts =  0 [   0]
  --> max chng: dpmx=   9.0842E-01 dtmpmx=   5.6016E-02

== TH FLOW =====================================================================
 Step    154 Time=  7.10000E+00 Dt=  5.00000E-02 [y] snes_conv_reason:   11
  newton =   1 [     162] linear =   121 [     21096] cuts =  0 [   0]
  --> max chng: dpmx=   9.1520E-01 dtmpmx=   5.5665E-02

== TH FLOW =====================================================================
 Step    155 Time=  7.15000E+00 Dt=  5.00000E-02 [y] snes_conv_reason:   11
  newton =   1 [     163] linear =   121 [     21217] cuts =  0 [   0]
  --> max chng: dpmx=   9.2085E-01 dtmpmx=   5.5319E-02

== TH FLOW =====================================================================
 Step    156 Time=  7.20000E+00 Dt=  5.00000E-02 [y] snes_conv_reason:   11
  newton =   1 [     164] linear =   122 [     21339] cuts =  0 [   0]
  --> max chng: dpmx=   9.2736E-01 dtmpmx=   5.4992E-02

== TH FLOW =====================================================================
 Step    157 Time=  7.25000E+00 Dt=  5.00000E-02 [y] snes_conv_reason:   11
  newton =   1 [     165] linear =   119 [     21458] cuts =  0 [   0]
  --> max chng: dpmx=   9.3366E-01 dtmpmx=   5.4668E-02

== TH FLOW =====================================================================
 Step    158 Time=  7.30000E+00 Dt=  5.00000E-02 [y] snes_conv_reason:   11
  newton =   1 [     166] linear =   122 [     21580] cuts =  0 [   0]
  --> max chng: dpmx=   9.3986E-01 dtmpmx=   5.4345E-02

== TH FLOW =====================================================================
 Step    159 Time=  7.35000E+00 Dt=  5.00000E-02 [y] snes_conv_reason:   11
  newton =   1 [     167] linear =   128 [     21708] cuts =  0 [   0]
  --> max chng: dpmx=   9.4616E-01 dtmpmx=   5.4025E-02

== TH FLOW =====================================================================
 Step    160 Time=  7.40000E+00 Dt=  5.00000E-02 [y] snes_conv_reason:   11
  newton =   1 [     168] linear =   136 [     21844] cuts =  0 [   0]
  --> max chng: dpmx=   9.5243E-01 dtmpmx=   5.3708E-02

== TH FLOW =====================================================================
 Step    161 Time=  7.45000E+00 Dt=  5.00000E-02 [y] snes_conv_reason:   11
  newton =   1 [     169] linear =   132 [     21976] cuts =  0 [   0]
  --> max chng: dpmx=   9.5866E-01 dtmpmx=   5.3392E-02

== TH FLOW =====================================================================
 Step    162 Time=  7.50000E+00 Dt=  5.00000E-02 [y] snes_conv_reason:   11
  newton =   1 [     170] linear =   127 [     22103] cuts =  0 [   0]
  --> max chng: dpmx=   9.6510E-01 dtmpmx=   5.3079E-02

== TH FLOW =====================================================================
 Step    163 Time=  7.55000E+00 Dt=  5.00000E-02 [y] snes_conv_reason:   11
  newton =   1 [     171] linear =   121 [     22224] cuts =  0 [   0]
  --> max chng: dpmx=   9.7111E-01 dtmpmx=   5.2767E-02

== TH FLOW =====================================================================
 Step    164 Time=  7.60000E+00 Dt=  5.00000E-02 [y] snes_conv_reason:   11
  newton =   1 [     172] linear =   131 [     22355] cuts =  0 [   0]
  --> max chng: dpmx=   9.7744E-01 dtmpmx=   5.2458E-02

== TH FLOW =====================================================================
 Step    165 Time=  7.65000E+00 Dt=  5.00000E-02 [y] snes_conv_reason:   11
  newton =   1 [     173] linear =   127 [     22482] cuts =  0 [   0]
  --> max chng: dpmx=   9.8380E-01 dtmpmx=   5.2151E-02

== TH FLOW =====================================================================
 Step    166 Time=  7.70000E+00 Dt=  5.00000E-02 [y] snes_conv_reason:   11
  newton =   1 [     174] linear =   127 [     22609] cuts =  0 [   0]
  --> max chng: dpmx=   9.9002E-01 dtmpmx=   5.1847E-02

== TH FLOW =====================================================================
 Step    167 Time=  7.75000E+00 Dt=  5.00000E-02 [y] snes_conv_reason:   11
  newton =   1 [     175] linear =   131 [     22740] cuts =  0 [   0]
  --> max chng: dpmx=   9.9619E-01 dtmpmx=   5.1562E-02

== TH FLOW =====================================================================
 Step    168 Time=  7.80000E+00 Dt=  5.00000E-02 [y] snes_conv_reason:    3
  newton =   1 [     176] linear =   125 [     22865] cuts =  0 [   0]
  --> max chng: dpmx=   1.0027E+00 dtmpmx=   5.1278E-02

== TH FLOW =====================================================================
 Step    169 Time=  7.85000E+00 Dt=  5.00000E-02 [y] snes_conv_reason:    3
  newton =   1 [     177] linear =   122 [     22987] cuts =  0 [   0]
  --> max chng: dpmx=   1.0086E+00 dtmpmx=   5.0996E-02

== TH FLOW =====================================================================
 Step    170 Time=  7.90000E+00 Dt=  5.00000E-02 [y] snes_conv_reason:    3
  newton =   1 [     178] linear =   123 [     23110] cuts =  0 [   0]
  --> max chng: dpmx=   1.0151E+00 dtmpmx=   5.0715E-02

== TH FLOW =====================================================================
 Step    171 Time=  7.95000E+00 Dt=  5.00000E-02 [y] snes_conv_reason:    3
  newton =   1 [     179] linear =   118 [     23228] cuts =  0 [   0]
  --> max chng: dpmx=   1.0213E+00 dtmpmx=   5.0436E-02

== TH FLOW =====================================================================
 Step    172 Time=  8.00000E+00 Dt=  5.00000E-02 [y] snes_conv_reason:    3
  newton =   1 [     180] linear =   124 [     23352] cuts =  0 [   0]
  --> max chng: dpmx=   1.0273E+00 dtmpmx=   5.0159E-02

== TH FLOW =====================================================================
 Step    173 Time=  8.05000E+00 Dt=  5.00000E-02 [y] snes_conv_reason:    3
  newton =   1 [     181] linear =   126 [     23478] cuts =  0 [   0]
  --> max chng: dpmx=   1.0338E+00 dtmpmx=   4.9883E-02

== TH FLOW =====================================================================
 Step    174 Time=  8.10000E+00 Dt=  5.00000E-02 [y] snes_conv_reason:    3
  newton =   1 [     182] linear =   130 [     23608] cuts =  0 [   0]
  --> max chng: dpmx=   1.0396E+00 dtmpmx=   4.9610E-02

== TH FLOW =====================================================================
 Step    175 Time=  8.15000E+00 Dt=  5.00000E-02 [y] snes_conv_reason:    3
  newton =   1 [     183] linear =   122 [     23730] cuts =  0 [   0]
  --> max chng: dpmx=   1.0456E+00 dtmpmx=   4.9337E-02

== TH FLOW =====================================================================
 Step    176 Time=  8.20000E+00 Dt=  5.00000E-02 [y] snes_conv_reason:    3
  newton =   1 [     184] linear =   123 [     23853] cuts =  0 [   0]
  --> max chng: dpmx=   1.0517E+00 dtmpmx=   4.9067E-02

== TH FLOW =====================================================================
 Step    177 Time=  8.25000E+00 Dt=  5.00000E-02 [y] snes_conv_reason:    3
  newton =   1 [     185] linear =   128 [     23981] cuts =  0 [   0]
  --> max chng: dpmx=   1.0580E+00 dtmpmx=   4.8798E-02

== TH FLOW =====================================================================
 Step    178 Time=  8.30000E+00 Dt=  5.00000E-02 [y] snes_conv_reason:    3
  newton =   1 [     186] linear =   120 [     24101] cuts =  0 [   0]
  --> max chng: dpmx=   1.0635E+00 dtmpmx=   4.8546E-02

== TH FLOW =====================================================================
 Step    179 Time=  8.35000E+00 Dt=  5.00000E-02 [y] snes_conv_reason:    3
  newton =   1 [     187] linear =   120 [     24221] cuts =  0 [   0]
  --> max chng: dpmx=   1.0694E+00 dtmpmx=   4.8295E-02

== TH FLOW =====================================================================
 Step    180 Time=  8.40000E+00 Dt=  5.00000E-02 [y] snes_conv_reason:    3
  newton =   1 [     188] linear =   129 [     24350] cuts =  0 [   0]
  --> max chng: dpmx=   1.0753E+00 dtmpmx=   4.8046E-02

== TH FLOW =====================================================================
 Step    181 Time=  8.45000E+00 Dt=  5.00000E-02 [y] snes_conv_reason:    3
  newton =   1 [     189] linear =   125 [     24475] cuts =  0 [   0]
  --> max chng: dpmx=   1.0809E+00 dtmpmx=   4.7798E-02

== TH FLOW =====================================================================
 Step    182 Time=  8.50000E+00 Dt=  5.00000E-02 [y] snes_conv_reason:    3
  newton =   1 [     190] linear =   126 [     24601] cuts =  0 [   0]
  --> max chng: dpmx=   1.0861E+00 dtmpmx=   4.7551E-02

== TH FLOW =====================================================================
 Step    183 Time=  8.55000E+00 Dt=  5.00000E-02 [y] snes_conv_reason:    3
  newton =   1 [     191] linear =   127 [     24728] cuts =  0 [   0]
  --> max chng: dpmx=   1.0915E+00 dtmpmx=   4.7305E-02

== TH FLOW =====================================================================
 Step    184 Time=  8.60000E+00 Dt=  5.00000E-02 [y] snes_conv_reason:    3
  newton =   1 [     192] linear =   129 [     24857] cuts =  0 [   0]
  --> max chng: dpmx=   1.0970E+00 dtmpmx=   4.7061E-02

== TH FLOW =====================================================================
 Step    185 Time=  8.65000E+00 Dt=  5.00000E-02 [y] snes_conv_reason:    3
  newton =   1 [     193] linear =   126 [     24983] cuts =  0 [   0]
  --> max chng: dpmx=   1.1018E+00 dtmpmx=   4.6818E-02

== TH FLOW =====================================================================
 Step    186 Time=  8.70000E+00 Dt=  5.00000E-02 [y] snes_conv_reason:    3
  newton =   1 [     194] linear =   132 [     25115] cuts =  0 [   0]
  --> max chng: dpmx=   1.1066E+00 dtmpmx=   4.6576E-02

== TH FLOW =====================================================================
 Step    187 Time=  8.75000E+00 Dt=  5.00000E-02 [y] snes_conv_reason:    3
  newton =   1 [     195] linear =   125 [     25240] cuts =  0 [   0]
  --> max chng: dpmx=   1.1113E+00 dtmpmx=   4.6336E-02

== TH FLOW =====================================================================
 Step    188 Time=  8.80000E+00 Dt=  5.00000E-02 [y] snes_conv_reason:    3
  newton =   1 [     196] linear =   132 [     25372] cuts =  0 [   0]
  --> max chng: dpmx=   1.1152E+00 dtmpmx=   4.6097E-02

== TH FLOW =====================================================================
 Step    189 Time=  8.85000E+00 Dt=  5.00000E-02 [y] snes_conv_reason:    3
  newton =   1 [     197] linear =   123 [     25495] cuts =  0 [   0]
  --> max chng: dpmx=   1.1194E+00 dtmpmx=   4.5873E-02

== TH FLOW =====================================================================
 Step    190 Time=  8.90000E+00 Dt=  5.00000E-02 [y] snes_conv_reason:    3
  newton =   1 [     198] linear =   121 [     25616] cuts =  0 [   0]
  --> max chng: dpmx=   1.1229E+00 dtmpmx=   4.5649E-02

== TH FLOW =====================================================================
 Step    191 Time=  8.95000E+00 Dt=  5.00000E-02 [y] snes_conv_reason:    3
  newton =   1 [     199] linear =   122 [     25738] cuts =  0 [   0]
  --> max chng: dpmx=   1.1260E+00 dtmpmx=   4.5427E-02

== TH FLOW =====================================================================
 Step    192 Time=  9.00000E+00 Dt=  5.00000E-02 [y] snes_conv_reason:    3
  newton =   1 [     200] linear =   127 [     25865] cuts =  0 [   0]
  --> max chng: dpmx=   1.1292E+00 dtmpmx=   4.5206E-02

== TH FLOW =====================================================================
 Step    193 Time=  9.05000E+00 Dt=  5.00000E-02 [y] snes_conv_reason:    3
  newton =   1 [     201] linear =   124 [     25989] cuts =  0 [   0]
  --> max chng: dpmx=   1.1314E+00 dtmpmx=   4.4986E-02

== TH FLOW =====================================================================
 Step    194 Time=  9.10000E+00 Dt=  5.00000E-02 [y] snes_conv_reason:    3
  newton =   1 [     202] linear =   126 [     26115] cuts =  0 [   0]
  --> max chng: dpmx=   1.1330E+00 dtmpmx=   4.4766E-02

== TH FLOW =====================================================================
 Step    195 Time=  9.15000E+00 Dt=  5.00000E-02 [y] snes_conv_reason:    3
  newton =   1 [     203] linear =   121 [     26236] cuts =  0 [   0]
  --> max chng: dpmx=   1.1347E+00 dtmpmx=   4.4548E-02

== TH FLOW =====================================================================
 Step    196 Time=  9.20000E+00 Dt=  5.00000E-02 [y] snes_conv_reason:    3
  newton =   1 [     204] linear =   121 [     26357] cuts =  0 [   0]
  --> max chng: dpmx=   1.1351E+00 dtmpmx=   4.4331E-02

== TH FLOW =====================================================================
 Step    197 Time=  9.25000E+00 Dt=  5.00000E-02 [y] snes_conv_reason:    3
  newton =   1 [     205] linear =   125 [     26482] cuts =  0 [   0]
  --> max chng: dpmx=   1.1354E+00 dtmpmx=   4.4115E-02

== TH FLOW =====================================================================
 Step    198 Time=  9.30000E+00 Dt=  5.00000E-02 [y] snes_conv_reason:    3
  newton =   1 [     206] linear =   126 [     26608] cuts =  0 [   0]
  --> max chng: dpmx=   1.1348E+00 dtmpmx=   4.3900E-02

== TH FLOW =====================================================================
 Step    199 Time=  9.35000E+00 Dt=  5.00000E-02 [y] snes_conv_reason:    3
  newton =   1 [     207] linear =   114 [     26722] cuts =  0 [   0]
  --> max chng: dpmx=   1.1333E+00 dtmpmx=   4.3685E-02

== TH FLOW =====================================================================
 Step    200 Time=  9.40000E+00 Dt=  5.00000E-02 [y] snes_conv_reason:    3
  newton =   1 [     208] linear =   124 [     26846] cuts =  0 [   0]
  --> max chng: dpmx=   1.1313E+00 dtmpmx=   4.3484E-02

== TH FLOW =====================================================================
 Step    201 Time=  9.45000E+00 Dt=  5.00000E-02 [y] snes_conv_reason:    3
  newton =   1 [     209] linear =   126 [     26972] cuts =  0 [   0]
  --> max chng: dpmx=   1.1285E+00 dtmpmx=   4.3284E-02

== TH FLOW =====================================================================
 Step    202 Time=  9.50000E+00 Dt=  5.00000E-02 [y] snes_conv_reason:    3
  newton =   1 [     210] linear =   131 [     27103] cuts =  0 [   0]
  --> max chng: dpmx=   1.1242E+00 dtmpmx=   4.3084E-02

== TH FLOW =====================================================================
 Step    203 Time=  9.55000E+00 Dt=  5.00000E-02 [y] snes_conv_reason:    3
  newton =   1 [     211] linear =   129 [     27232] cuts =  0 [   0]
  --> max chng: dpmx=   1.1195E+00 dtmpmx=   4.2886E-02

== TH FLOW =====================================================================
 Step    204 Time=  9.60000E+00 Dt=  5.00000E-02 [y] snes_conv_reason:    3
  newton =   1 [     212] linear =   129 [     27361] cuts =  0 [   0]
  --> max chng: dpmx=   1.1139E+00 dtmpmx=   4.2688E-02

== TH FLOW =====================================================================
 Step    205 Time=  9.65000E+00 Dt=  5.00000E-02 [y] snes_conv_reason:    3
  newton =   1 [     213] linear =   128 [     27489] cuts =  0 [   0]
  --> max chng: dpmx=   1.1070E+00 dtmpmx=   4.2491E-02

== TH FLOW =====================================================================
 Step    206 Time=  9.70000E+00 Dt=  5.00000E-02 [y] snes_conv_reason:    3
  newton =   1 [     214] linear =   122 [     27611] cuts =  0 [   0]
  --> max chng: dpmx=   1.0990E+00 dtmpmx=   4.2294E-02

== TH FLOW =====================================================================
 Step    207 Time=  9.75000E+00 Dt=  5.00000E-02 [y] snes_conv_reason:    3
  newton =   1 [     215] linear =   132 [     27743] cuts =  0 [   0]
  --> max chng: dpmx=   1.0896E+00 dtmpmx=   4.2098E-02

== TH FLOW =====================================================================
 Step    208 Time=  9.80000E+00 Dt=  5.00000E-02 [y] snes_conv_reason:    3
  newton =   1 [     216] linear =   124 [     27867] cuts =  0 [   0]
  --> max chng: dpmx=   1.0798E+00 dtmpmx=   4.1904E-02

== TH FLOW =====================================================================
 Step    209 Time=  9.85000E+00 Dt=  5.00000E-02 [y] snes_conv_reason:    3
  newton =   1 [     217] linear =   133 [     28000] cuts =  0 [   0]
  --> max chng: dpmx=   1.0686E+00 dtmpmx=   4.1710E-02

== TH FLOW =====================================================================
 Step    210 Time=  9.90000E+00 Dt=  5.00000E-02 [y] snes_conv_reason:    3
  newton =   1 [     218] linear =   132 [     28132] cuts =  0 [   0]
  --> max chng: dpmx=   1.0561E+00 dtmpmx=   4.1517E-02

== TH FLOW =====================================================================
 Step    211 Time=  9.95000E+00 Dt=  5.00000E-02 [y] snes_conv_reason:    3
  newton =   1 [     219] linear =   122 [     28254] cuts =  0 [   0]
  --> max chng: dpmx=   1.0421E+00 dtmpmx=   4.1335E-02

== TH FLOW =====================================================================
 Step    212 Time=  1.00000E+01 Dt=  5.00000E-02 [y] snes_conv_reason:    3
  newton =   1 [     220] linear =   122 [     28376] cuts =  0 [   0]
  --> max chng: dpmx=   1.0275E+00 dtmpmx=   4.1154E-02

== TH FLOW =====================================================================
 Step    213 Time=  1.00500E+01 Dt=  5.00000E-02 [y] snes_conv_reason:    3
  newton =   1 [     221] linear =   126 [     28502] cuts =  0 [   0]
  --> max chng: dpmx=   1.0114E+00 dtmpmx=   4.0974E-02

== TH FLOW =====================================================================
 Step    214 Time=  1.01000E+01 Dt=  5.00000E-02 [y] snes_conv_reason:   11
  newton =   1 [     222] linear =   130 [     28632] cuts =  0 [   0]
  --> max chng: dpmx=   9.9415E-01 dtmpmx=   4.0794E-02

== TH FLOW =====================================================================
 Step    215 Time=  1.01500E+01 Dt=  5.00000E-02 [y] snes_conv_reason:   11
  newton =   1 [     223] linear =   125 [     28757] cuts =  0 [   0]
  --> max chng: dpmx=   9.7553E-01 dtmpmx=   4.0615E-02

== TH FLOW =====================================================================
 Step    216 Time=  1.02000E+01 Dt=  5.00000E-02 [y] snes_conv_reason:   11
  newton =   1 [     224] linear =   121 [     28878] cuts =  0 [   0]
  --> max chng: dpmx=   9.5618E-01 dtmpmx=   4.0436E-02

== TH FLOW =====================================================================
 Step    217 Time=  1.02500E+01 Dt=  5.00000E-02 [y] snes_conv_reason:   11
  newton =   1 [     225] linear =   130 [     29008] cuts =  0 [   0]
  --> max chng: dpmx=   9.3537E-01 dtmpmx=   4.0258E-02

== TH FLOW =====================================================================
 Step    218 Time=  1.03000E+01 Dt=  5.00000E-02 [y] snes_conv_reason:   11
  newton =   1 [     226] linear =   125 [     29133] cuts =  0 [   0]
  --> max chng: dpmx=   9.1390E-01 dtmpmx=   4.0081E-02

== TH FLOW =====================================================================
 Step    219 Time=  1.03500E+01 Dt=  5.00000E-02 [y] snes_conv_reason:   11
  newton =   1 [     227] linear =   129 [     29262] cuts =  0 [   0]
  --> max chng: dpmx=   8.9101E-01 dtmpmx=   3.9904E-02

== TH FLOW =====================================================================
 Step    220 Time=  1.04000E+01 Dt=  5.00000E-02 [y] snes_conv_reason:   11
  newton =   1 [     228] linear =   129 [     29391] cuts =  0 [   0]
  --> max chng: dpmx=   8.6742E-01 dtmpmx=   3.9728E-02

== TH FLOW =====================================================================
 Step    221 Time=  1.04500E+01 Dt=  5.00000E-02 [y] snes_conv_reason:   11
  newton =   1 [     229] linear =   129 [     29520] cuts =  0 [   0]
  --> max chng: dpmx=   8.4294E-01 dtmpmx=   3.9553E-02

== TH FLOW =====================================================================
 Step    222 Time=  1.05000E+01 Dt=  5.00000E-02 [y] snes_conv_reason:   11
  newton =   1 [     230] linear =   128 [     29648] cuts =  0 [   0]
  --> max chng: dpmx=   8.1762E-01 dtmpmx=   3.9388E-02

== TH FLOW =====================================================================
 Step    223 Time=  1.05500E+01 Dt=  5.00000E-02 [y] snes_conv_reason:   11
  newton =   1 [     231] linear =   128 [     29776] cuts =  0 [   0]
  --> max chng: dpmx=   7.9172E-01 dtmpmx=   3.9223E-02

== TH FLOW =====================================================================
 Step    224 Time=  1.06000E+01 Dt=  5.00000E-02 [y] snes_conv_reason:   11
  newton =   1 [     232] linear =   125 [     29901] cuts =  0 [   0]
  --> max chng: dpmx=   7.6530E-01 dtmpmx=   3.9059E-02

== TH FLOW =====================================================================
 Step    225 Time=  1.06500E+01 Dt=  5.00000E-02 [y] snes_conv_reason:   11
  newton =   1 [     233] linear =   127 [     30028] cuts =  0 [   0]
  --> max chng: dpmx=   7.3802E-01 dtmpmx=   3.8896E-02

== TH FLOW =====================================================================
 Step    226 Time=  1.07000E+01 Dt=  5.00000E-02 [y] snes_conv_reason:   11
  newton =   1 [     234] linear =   127 [     30155] cuts =  0 [   0]
  --> max chng: dpmx=   7.1058E-01 dtmpmx=   3.8732E-02

== TH FLOW =====================================================================
 Step    227 Time=  1.07500E+01 Dt=  5.00000E-02 [y] snes_conv_reason:   11
  newton =   1 [     235] linear =   129 [     30284] cuts =  0 [   0]
  --> max chng: dpmx=   6.8276E-01 dtmpmx=   3.8569E-02

== TH FLOW =====================================================================
 Step    228 Time=  1.08000E+01 Dt=  5.00000E-02 [y] snes_conv_reason:   11
  newton =   1 [     236] linear =   123 [     30407] cuts =  0 [   0]
  --> max chng: dpmx=   6.5479E-01 dtmpmx=   3.8398E-02

== TH FLOW =====================================================================
 Step    229 Time=  1.08500E+01 Dt=  5.00000E-02 [y] snes_conv_reason:   11
  newton =   1 [     237] linear =   131 [     30538] cuts =  0 [   0]
  --> max chng: dpmx=   6.2659E-01 dtmpmx=   3.8161E-02

== TH FLOW =====================================================================
 Step    230 Time=  1.09000E+01 Dt=  5.00000E-02 [y] snes_conv_reason:   11
  newton =   1 [     238] linear =   126 [     30664] cuts =  0 [   0]
  --> max chng: dpmx=   5.9845E-01 dtmpmx=   3.7807E-02

== TH FLOW =====================================================================
 Step    231 Time=  1.09500E+01 Dt=  5.00000E-02 [y] snes_conv_reason:   11
  newton =   1 [     239] linear =   129 [     30793] cuts =  0 [   0]
  --> max chng: dpmx=   5.7044E-01 dtmpmx=   3.7342E-02

== TH FLOW =====================================================================
 Step    232 Time=  1.10000E+01 Dt=  5.00000E-02 [y] snes_conv_reason:   11
  newton =   1 [     240] linear =   133 [     30926] cuts =  0 [   0]
  --> max chng: dpmx=   5.4262E-01 dtmpmx=   3.6769E-02

== TH FLOW =====================================================================
 Step    233 Time=  1.10500E+01 Dt=  5.00000E-02 [y] snes_conv_reason:   11
  newton =   1 [     241] linear =   134 [     31060] cuts =  0 [   0]
  --> max chng: dpmx=   5.1512E-01 dtmpmx=   3.6096E-02

== TH FLOW =====================================================================
 Step    234 Time=  1.11000E+01 Dt=  5.00000E-02 [y] snes_conv_reason:   11
  newton =   1 [     242] linear =   132 [     31192] cuts =  0 [   0]
  --> max chng: dpmx=   4.8787E-01 dtmpmx=   3.5329E-02

== TH FLOW =====================================================================
 Step    235 Time=  1.11500E+01 Dt=  5.00000E-02 [y] snes_conv_reason:   11
  newton =   1 [     243] linear =   130 [     31322] cuts =  0 [   0]
  --> max chng: dpmx=   4.6119E-01 dtmpmx=   3.4475E-02

== TH FLOW =====================================================================
 Step    236 Time=  1.12000E+01 Dt=  5.00000E-02 [y] snes_conv_reason:   11
  newton =   1 [     244] linear =   131 [     31453] cuts =  0 [   0]
  --> max chng: dpmx=   4.3504E-01 dtmpmx=   3.3549E-02

== TH FLOW =====================================================================
 Step    237 Time=  1.12500E+01 Dt=  5.00000E-02 [y] snes_conv_reason:   11
  newton =   1 [     245] linear =   129 [     31582] cuts =  0 [   0]
  --> max chng: dpmx=   4.0956E-01 dtmpmx=   3.2636E-02

== TH FLOW =====================================================================
 Step    238 Time=  1.13000E+01 Dt=  5.00000E-02 [y] snes_conv_reason:   11
  newton =   1 [     246] linear =   129 [     31711] cuts =  0 [   0]
  --> max chng: dpmx=   3.8468E-01 dtmpmx=   3.1656E-02

== TH FLOW =====================================================================
 Step    239 Time=  1.13500E+01 Dt=  5.00000E-02 [y] snes_conv_reason:   11
  newton =   1 [     247] linear =   136 [     31847] cuts =  0 [   0]
  --> max chng: dpmx=   3.6052E-01 dtmpmx=   3.0618E-02

== TH FLOW =====================================================================
 Step    240 Time=  1.14000E+01 Dt=  5.00000E-02 [y] snes_conv_reason:   11
  newton =   1 [     248] linear =   135 [     31982] cuts =  0 [   0]
  --> max chng: dpmx=   3.3721E-01 dtmpmx=   2.9530E-02

== TH FLOW =====================================================================
 Step    241 Time=  1.14500E+01 Dt=  5.00000E-02 [y] snes_conv_reason:   11
  newton =   1 [     249] linear =   132 [     32114] cuts =  0 [   0]
  --> max chng: dpmx=   3.1474E-01 dtmpmx=   2.8402E-02

== TH FLOW =====================================================================
 Step    242 Time=  1.15000E+01 Dt=  5.00000E-02 [y] snes_conv_reason:   11
  newton =   1 [     250] linear =   134 [     32248] cuts =  0 [   0]
  --> max chng: dpmx=   2.9314E-01 dtmpmx=   2.7242E-02

== TH FLOW =====================================================================
 Step    243 Time=  1.15500E+01 Dt=  5.00000E-02 [y] snes_conv_reason:   11
  newton =   1 [     251] linear =   132 [     32380] cuts =  0 [   0]
  --> max chng: dpmx=   2.7245E-01 dtmpmx=   2.6058E-02

== TH FLOW =====================================================================
 Step    244 Time=  1.16000E+01 Dt=  5.00000E-02 [y] snes_conv_reason:   11
  newton =   1 [     252] linear =   134 [     32514] cuts =  0 [   0]
  --> max chng: dpmx=   2.5262E-01 dtmpmx=   2.4858E-02

== TH FLOW =====================================================================
 Step    245 Time=  1.16500E+01 Dt=  5.00000E-02 [y] snes_conv_reason:   11
  newton =   1 [     253] linear =   135 [     32649] cuts =  0 [   0]
  --> max chng: dpmx=   2.3382E-01 dtmpmx=   2.3651E-02

== TH FLOW =====================================================================
 Step    246 Time=  1.17000E+01 Dt=  5.00000E-02 [y] snes_conv_reason:   11
  newton =   1 [     254] linear =   135 [     32784] cuts =  0 [   0]
  --> max chng: dpmx=   2.1590E-01 dtmpmx=   2.2444E-02

== TH FLOW =====================================================================
 Step    247 Time=  1.17500E+01 Dt=  5.00000E-02 [y] snes_conv_reason:   11
  newton =   1 [     255] linear =   133 [     32917] cuts =  0 [   0]
  --> max chng: dpmx=   1.9895E-01 dtmpmx=   2.1243E-02

== TH FLOW =====================================================================
 Step    248 Time=  1.18000E+01 Dt=  5.00000E-02 [y] snes_conv_reason:   11
  newton =   1 [     256] linear =   135 [     33052] cuts =  0 [   0]
  --> max chng: dpmx=   1.8295E-01 dtmpmx=   2.0055E-02

== TH FLOW =====================================================================
 Step    249 Time=  1.18500E+01 Dt=  5.00000E-02 [y] snes_conv_reason:   11
  newton =   1 [     257] linear =   135 [     33187] cuts =  0 [   0]
  --> max chng: dpmx=   1.6784E-01 dtmpmx=   1.8886E-02

== TH FLOW =====================================================================
 Step    250 Time=  1.19000E+01 Dt=  5.00000E-02 [y] snes_conv_reason:   11
  newton =   1 [     258] linear =   135 [     33322] cuts =  0 [   0]
  --> max chng: dpmx=   1.5369E-01 dtmpmx=   1.7740E-02

== TH FLOW =====================================================================
 Step    251 Time=  1.19500E+01 Dt=  5.00000E-02 [y] snes_conv_reason:   11
  newton =   1 [     259] linear =   135 [     33457] cuts =  0 [   0]
  --> max chng: dpmx=   1.4040E-01 dtmpmx=   1.6623E-02

== TH FLOW =====================================================================
 Step    252 Time=  1.20000E+01 Dt=  5.00000E-02 [y] snes_conv_reason:   11
  newton =   1 [     260] linear =   135 [     33592] cuts =  0 [   0]
  --> max chng: dpmx=   1.2801E-01 dtmpmx=   1.5539E-02

== TH FLOW =====================================================================
 Step    253 Time=  1.20500E+01 Dt=  5.00000E-02 [y] snes_conv_reason:   11
  newton =   1 [     261] linear =   137 [     33729] cuts =  0 [   0]
  --> max chng: dpmx=   1.1646E-01 dtmpmx=   1.4490E-02

== TH FLOW =====================================================================
 Step    254 Time=  1.21000E+01 Dt=  5.00000E-02 [y] snes_conv_reason:   11
  newton =   1 [     262] linear =   136 [     33865] cuts =  0 [   0]
  --> max chng: dpmx=   1.0571E-01 dtmpmx=   1.3480E-02

== TH FLOW =====================================================================
 Step    255 Time=  1.21500E+01 Dt=  5.00000E-02 [y] snes_conv_reason:   11
  newton =   1 [     263] linear =   135 [     34000] cuts =  0 [   0]
  --> max chng: dpmx=   9.5738E-02 dtmpmx=   1.2511E-02

== TH FLOW =====================================================================
 Step    256 Time=  1.22000E+01 Dt=  5.00000E-02 [y] snes_conv_reason:   11
  newton =   1 [     264] linear =   136 [     34136] cuts =  0 [   0]
  --> max chng: dpmx=   8.6552E-02 dtmpmx=   1.1584E-02

== TH FLOW =====================================================================
 Step    257 Time=  1.22500E+01 Dt=  5.00000E-02 [y] snes_conv_reason:   11
  newton =   1 [     265] linear =   138 [     34274] cuts =  0 [   0]
  --> max chng: dpmx=   7.8050E-02 dtmpmx=   1.0701E-02

[...]
 Step    493 Time=  2.40500E+01 Dt=  5.00000E-02 [y] snes_conv_reason:   11
  newton =   1 [     501] linear =   130 [     63988] cuts =  0 [   0]
  --> max chng: dpmx=   2.5148E-05 dtmpmx=   7.3655E-07

== TH FLOW =====================================================================
 Step    494 Time=  2.41000E+01 Dt=  5.00000E-02 [y] snes_conv_reason:   11
  newton =   1 [     502] linear =   134 [     64122] cuts =  0 [   0]
  --> max chng: dpmx=   2.5689E-05 dtmpmx=   6.1417E-07

== TH FLOW =====================================================================
 Step    495 Time=  2.41500E+01 Dt=  5.00000E-02 [y] snes_conv_reason:   11
  newton =   1 [     503] linear =   132 [     64254] cuts =  0 [   0]
  --> max chng: dpmx=   2.6163E-05 dtmpmx=   6.0485E-07

== TH FLOW =====================================================================
 Step    496 Time=  2.42000E+01 Dt=  5.00000E-02 [y] snes_conv_reason:   11
  newton =   1 [     504] linear =   128 [     64382] cuts =  0 [   0]
  --> max chng: dpmx=   2.6579E-05 dtmpmx=   6.0417E-07

== TH FLOW =====================================================================
 Step    497 Time=  2.42500E+01 Dt=  5.00000E-02 [y] snes_conv_reason:   11
  newton =   1 [     505] linear =   119 [     64501] cuts =  0 [   0]
  --> max chng: dpmx=   2.6939E-05 dtmpmx=   6.0343E-07

== TH FLOW =====================================================================
 Step    498 Time=  2.43000E+01 Dt=  5.00000E-02 [y] snes_conv_reason:   11
  newton =   1 [     506] linear =   129 [     64630] cuts =  0 [   0]
  --> max chng: dpmx=   2.7253E-05 dtmpmx=   6.0274E-07

== TH FLOW =====================================================================
 Step    499 Time=  2.43500E+01 Dt=  5.00000E-02 [y] snes_conv_reason:   11
  newton =   1 [     507] linear =   123 [     64753] cuts =  0 [   0]
  --> max chng: dpmx=   2.7514E-05 dtmpmx=   6.0199E-07

== TH FLOW =====================================================================
 Step    500 Time=  2.44000E+01 Dt=  5.00000E-02 [y] snes_conv_reason:   11
  newton =   1 [     508] linear =   120 [     64873] cuts =  0 [   0]
  --> max chng: dpmx=   2.7725E-05 dtmpmx=   6.0128E-07

== TH FLOW =====================================================================
 Step    501 Time=  2.44500E+01 Dt=  5.00000E-02 [y] snes_conv_reason:   11
  newton =   1 [     509] linear =   125 [     64998] cuts =  0 [   0]
  --> max chng: dpmx=   2.7902E-05 dtmpmx=   6.0056E-07

== TH FLOW =====================================================================
 Step    502 Time=  2.45000E+01 Dt=  5.00000E-02 [y] snes_conv_reason:   11
  newton =   1 [     510] linear =   120 [     65118] cuts =  0 [   0]
  --> max chng: dpmx=   2.8035E-05 dtmpmx=   5.9984E-07

== TH FLOW =====================================================================
 Step    503 Time=  2.45500E+01 Dt=  5.00000E-02 [y] snes_conv_reason:   11
  newton =   1 [     511] linear =   124 [     65242] cuts =  0 [   0]
  --> max chng: dpmx=   2.8128E-05 dtmpmx=   5.9907E-07

== TH FLOW =====================================================================
 Step    504 Time=  2.46000E+01 Dt=  5.00000E-02 [y] snes_conv_reason:   11
  newton =   1 [     512] linear =   131 [     65373] cuts =  0 [   0]
  --> max chng: dpmx=   2.8194E-05 dtmpmx=   5.9832E-07

== TH FLOW =====================================================================
 Step    505 Time=  2.46500E+01 Dt=  5.00000E-02 [y] snes_conv_reason:   11
  newton =   1 [     513] linear =   121 [     65494] cuts =  0 [   0]
  --> max chng: dpmx=   2.8222E-05 dtmpmx=   5.9756E-07

== TH FLOW =====================================================================
 Step    506 Time=  2.47000E+01 Dt=  5.00000E-02 [y] snes_conv_reason:   11
  newton =   1 [     514] linear =   118 [     65612] cuts =  0 [   0]
  --> max chng: dpmx=   2.8228E-05 dtmpmx=   5.9680E-07

== TH FLOW =====================================================================
 Step    507 Time=  2.47500E+01 Dt=  5.00000E-02 [y] snes_conv_reason:   11
  newton =   1 [     515] linear =   123 [     65735] cuts =  0 [   0]
  --> max chng: dpmx=   2.8200E-05 dtmpmx=   5.9607E-07

== TH FLOW =====================================================================
 Step    508 Time=  2.48000E+01 Dt=  5.00000E-02 [y] snes_conv_reason:   11
  newton =   1 [     516] linear =   119 [     65854] cuts =  0 [   0]
  --> max chng: dpmx=   2.8149E-05 dtmpmx=   5.9532E-07

== TH FLOW =====================================================================
 Step    509 Time=  2.48500E+01 Dt=  5.00000E-02 [y] snes_conv_reason:   11
  newton =   1 [     517] linear =   120 [     65974] cuts =  0 [   0]
  --> max chng: dpmx=   2.8079E-05 dtmpmx=   5.9455E-07

== TH FLOW =====================================================================
 Step    510 Time=  2.49000E+01 Dt=  5.00000E-02 [y] snes_conv_reason:   11
  newton =   1 [     518] linear =   120 [     66094] cuts =  0 [   0]
  --> max chng: dpmx=   2.7990E-05 dtmpmx=   5.9380E-07

== TH FLOW =====================================================================
 Step    511 Time=  2.49500E+01 Dt=  5.00000E-02 [y] snes_conv_reason:   11
  newton =   1 [     519] linear =   111 [     66205] cuts =  0 [   0]
  --> max chng: dpmx=   2.7875E-05 dtmpmx=   5.9302E-07

== TH FLOW =====================================================================
 Step    512 Time=  2.50000E+01 Dt=  5.00000E-02 [y] snes_conv_reason:   11
  newton =   1 [     520] linear =   122 [     66327] cuts =  0 [   0]
  --> max chng: dpmx=   2.7742E-05 dtmpmx=   5.9224E-07

== TH FLOW =====================================================================
 Step    513 Time=  2.50500E+01 Dt=  5.00000E-02 [y] snes_conv_reason:   11
  newton =   1 [     521] linear =   104 [     66431] cuts =  0 [   0]
  --> max chng: dpmx=   2.7599E-05 dtmpmx=   5.9149E-07

== TH FLOW =====================================================================
 Step    514 Time=  2.51000E+01 Dt=  5.00000E-02 [y] snes_conv_reason:   11
  newton =   1 [     522] linear =   123 [     66554] cuts =  0 [   0]
  --> max chng: dpmx=   2.7438E-05 dtmpmx=   5.9070E-07

== TH FLOW =====================================================================
 Step    515 Time=  2.51500E+01 Dt=  5.00000E-02 [y] snes_conv_reason:   11
  newton =   1 [     523] linear =   121 [     66675] cuts =  0 [   0]
  --> max chng: dpmx=   2.7262E-05 dtmpmx=   5.8992E-07

== TH FLOW =====================================================================
 Step    516 Time=  2.52000E+01 Dt=  5.00000E-02 [y] snes_conv_reason:   11
  newton =   1 [     524] linear =   109 [     66784] cuts =  0 [   0]
  --> max chng: dpmx=   2.7077E-05 dtmpmx=   5.8914E-07

== TH FLOW =====================================================================
 Step    517 Time=  2.52500E+01 Dt=  5.00000E-02 [y] snes_conv_reason:   11
  newton =   1 [     525] linear =   122 [     66906] cuts =  0 [   0]
  --> max chng: dpmx=   2.6882E-05 dtmpmx=   5.8836E-07

== TH FLOW =====================================================================
 Step    518 Time=  2.53000E+01 Dt=  5.00000E-02 [y] snes_conv_reason:   11
  newton =   1 [     526] linear =   115 [     67021] cuts =  0 [   0]
  --> max chng: dpmx=   2.6675E-05 dtmpmx=   5.8753E-07

== TH FLOW =====================================================================
 Step    519 Time=  2.53500E+01 Dt=  5.00000E-02 [y] snes_conv_reason:   11
  newton =   1 [     527] linear =   110 [     67131] cuts =  0 [   0]
  --> max chng: dpmx=   2.6460E-05 dtmpmx=   5.8674E-07

== TH FLOW =====================================================================
 Step    520 Time=  2.54000E+01 Dt=  5.00000E-02 [y] snes_conv_reason:   11
  newton =   1 [     528] linear =   118 [     67249] cuts =  0 [   0]
  --> max chng: dpmx=   2.6232E-05 dtmpmx=   5.8595E-07

== TH FLOW =====================================================================
 Step    521 Time=  2.54500E+01 Dt=  5.00000E-02 [y] snes_conv_reason:   11
  newton =   1 [     529] linear =   113 [     67362] cuts =  0 [   0]
  --> max chng: dpmx=   2.5999E-05 dtmpmx=   5.8516E-07

== TH FLOW =====================================================================
 Step    522 Time=  2.55000E+01 Dt=  5.00000E-02 [y] snes_conv_reason:   11
  newton =   1 [     530] linear =   121 [     67483] cuts =  0 [   0]
  --> max chng: dpmx=   2.5767E-05 dtmpmx=   5.8436E-07

== TH FLOW =====================================================================
 Step    523 Time=  2.55500E+01 Dt=  5.00000E-02 [y] snes_conv_reason:   11
  newton =   1 [     531] linear =   111 [     67594] cuts =  0 [   0]
  --> max chng: dpmx=   2.5515E-05 dtmpmx=   5.8357E-07

== TH FLOW =====================================================================
 Step    524 Time=  2.56000E+01 Dt=  5.00000E-02 [y] snes_conv_reason:   11
  newton =   1 [     532] linear =   123 [     67717] cuts =  0 [   0]
  --> max chng: dpmx=   2.5271E-05 dtmpmx=   5.8275E-07

== TH FLOW =====================================================================
 Step    525 Time=  2.56500E+01 Dt=  5.00000E-02 [y] snes_conv_reason:   11
  newton =   1 [     533] linear =   115 [     67832] cuts =  0 [   0]
  --> max chng: dpmx=   2.5010E-05 dtmpmx=   5.8194E-07

== TH FLOW =====================================================================
 Step    526 Time=  2.57000E+01 Dt=  5.00000E-02 [y] snes_conv_reason:   11
  newton =   1 [     534] linear =   121 [     67953] cuts =  0 [   0]
  --> max chng: dpmx=   2.4753E-05 dtmpmx=   5.8113E-07

== TH FLOW =====================================================================
 Step    527 Time=  2.57500E+01 Dt=  5.00000E-02 [y] snes_conv_reason:   11
  newton =   1 [     535] linear =   123 [     68076] cuts =  0 [   0]
  --> max chng: dpmx=   2.4496E-05 dtmpmx=   5.8031E-07

== TH FLOW =====================================================================
 Step    528 Time=  2.58000E+01 Dt=  5.00000E-02 [y] snes_conv_reason:   11
  newton =   1 [     536] linear =   122 [     68198] cuts =  0 [   0]
  --> max chng: dpmx=   2.4225E-05 dtmpmx=   5.7941E-07

== TH FLOW =====================================================================
 Step    529 Time=  2.58500E+01 Dt=  5.00000E-02 [y] snes_conv_reason:   11
  newton =   1 [     537] linear =   121 [     68319] cuts =  0 [   0]
  --> max chng: dpmx=   2.3954E-05 dtmpmx=   5.7847E-07

== TH FLOW =====================================================================
 Step    530 Time=  2.59000E+01 Dt=  5.00000E-02 [y] snes_conv_reason:   11
  newton =   1 [     538] linear =   120 [     68439] cuts =  0 [   0]
  --> max chng: dpmx=   2.3683E-05 dtmpmx=   5.7707E-07

== TH FLOW =====================================================================
 Step    531 Time=  2.59500E+01 Dt=  5.00000E-02 [y] snes_conv_reason:   11
  newton =   1 [     539] linear =   115 [     68554] cuts =  0 [   0]
  --> max chng: dpmx=   2.3410E-05 dtmpmx=   5.7532E-07

== TH FLOW =====================================================================
 Step    532 Time=  2.60000E+01 Dt=  5.00000E-02 [y] snes_conv_reason:   11
  newton =   1 [     540] linear =   119 [     68673] cuts =  0 [   0]
  --> max chng: dpmx=   2.3125E-05 dtmpmx=   5.7316E-07

== TH FLOW =====================================================================
 Step    533 Time=  2.60500E+01 Dt=  5.00000E-02 [y] snes_conv_reason:   11
  newton =   1 [     541] linear =   122 [     68795] cuts =  0 [   0]
  --> max chng: dpmx=   2.2852E-05 dtmpmx=   5.7068E-07

== TH FLOW =====================================================================
 Step    534 Time=  2.61000E+01 Dt=  5.00000E-02 [y] snes_conv_reason:   11
  newton =   1 [     542] linear =   114 [     68909] cuts =  0 [   0]
  --> max chng: dpmx=   2.2572E-05 dtmpmx=   5.6794E-07

== TH FLOW =====================================================================
 Step    535 Time=  2.61500E+01 Dt=  5.00000E-02 [y] snes_conv_reason:   11
  newton =   1 [     543] linear =   120 [     69029] cuts =  0 [   0]
  --> max chng: dpmx=   2.2288E-05 dtmpmx=   5.6488E-07

== TH FLOW =====================================================================
 Step    536 Time=  2.62000E+01 Dt=  5.00000E-02 [y] snes_conv_reason:   11
  newton =   1 [     544] linear =   125 [     69154] cuts =  0 [   0]
  --> max chng: dpmx=   2.2008E-05 dtmpmx=   5.6161E-07

== TH FLOW =====================================================================
 Step    537 Time=  2.62500E+01 Dt=  5.00000E-02 [y] snes_conv_reason:   11
  newton =   1 [     545] linear =   125 [     69279] cuts =  0 [   0]
  --> max chng: dpmx=   2.1720E-05 dtmpmx=   5.5813E-07

== TH FLOW =====================================================================
 Step    538 Time=  2.63000E+01 Dt=  5.00000E-02 [y] snes_conv_reason:   11
  newton =   1 [     546] linear =   125 [     69404] cuts =  0 [   0]
  --> max chng: dpmx=   2.1434E-05 dtmpmx=   5.5448E-07

== TH FLOW =====================================================================
 Step    539 Time=  2.63500E+01 Dt=  5.00000E-02 [y] snes_conv_reason:   11
  newton =   1 [     547] linear =   125 [     69529] cuts =  0 [   0]
  --> max chng: dpmx=   2.1152E-05 dtmpmx=   5.5060E-07

== TH FLOW =====================================================================
 Step    540 Time=  2.64000E+01 Dt=  5.00000E-02 [y] snes_conv_reason:   11
  newton =   1 [     548] linear =   123 [     69652] cuts =  0 [   0]
  --> max chng: dpmx=   2.0863E-05 dtmpmx=   5.4663E-07

== TH FLOW =====================================================================
 Step    541 Time=  2.64500E+01 Dt=  5.00000E-02 [y] snes_conv_reason:   11
  newton =   1 [     549] linear =   124 [     69776] cuts =  0 [   0]
  --> max chng: dpmx=   2.0580E-05 dtmpmx=   5.4245E-07

== TH FLOW =====================================================================
 Step    542 Time=  2.65000E+01 Dt=  5.00000E-02 [y] snes_conv_reason:   11
  newton =   1 [     550] linear =   117 [     69893] cuts =  0 [   0]
  --> max chng: dpmx=   2.0292E-05 dtmpmx=   5.3823E-07

== TH FLOW =====================================================================
 Step    543 Time=  2.65500E+01 Dt=  5.00000E-02 [y] snes_conv_reason:   11
  newton =   1 [     551] linear =   124 [     70017] cuts =  0 [   0]
  --> max chng: dpmx=   2.0008E-05 dtmpmx=   5.3387E-07

== TH FLOW =====================================================================
 Step    544 Time=  2.66000E+01 Dt=  5.00000E-02 [y] snes_conv_reason:   11
  newton =   1 [     552] linear =   118 [     70135] cuts =  0 [   0]
  --> max chng: dpmx=   1.9719E-05 dtmpmx=   5.2942E-07

== TH FLOW =====================================================================
 Step    545 Time=  2.66500E+01 Dt=  5.00000E-02 [y] snes_conv_reason:   11
  newton =   1 [     553] linear =   125 [     70260] cuts =  0 [   0]
  --> max chng: dpmx=   1.9432E-05 dtmpmx=   5.2484E-07

== TH FLOW =====================================================================
 Step    546 Time=  2.67000E+01 Dt=  5.00000E-02 [y] snes_conv_reason:   11
  newton =   1 [     554] linear =   125 [     70385] cuts =  0 [   0]
  --> max chng: dpmx=   1.9149E-05 dtmpmx=   5.2018E-07

== TH FLOW =====================================================================
 Step    547 Time=  2.67500E+01 Dt=  5.00000E-02 [y] snes_conv_reason:   11
  newton =   1 [     555] linear =   125 [     70510] cuts =  0 [   0]
  --> max chng: dpmx=   1.8860E-05 dtmpmx=   5.1549E-07

== TH FLOW =====================================================================
 Step    548 Time=  2.68000E+01 Dt=  5.00000E-02 [y] snes_conv_reason:   11
  newton =   1 [     556] linear =   124 [     70634] cuts =  0 [   0]
  --> max chng: dpmx=   1.8576E-05 dtmpmx=   5.1075E-07

== TH FLOW =====================================================================
 Step    549 Time=  2.68500E+01 Dt=  5.00000E-02 [y] snes_conv_reason:   11
  newton =   1 [     557] linear =   124 [     70758] cuts =  0 [   0]
  --> max chng: dpmx=   1.8295E-05 dtmpmx=   5.0587E-07

== TH FLOW =====================================================================
 Step    550 Time=  2.69000E+01 Dt=  5.00000E-02 [y] snes_conv_reason:   11
  newton =   1 [     558] linear =   123 [     70881] cuts =  0 [   0]
  --> max chng: dpmx=   1.8009E-05 dtmpmx=   5.0104E-07

== TH FLOW =====================================================================
 Step    551 Time=  2.69500E+01 Dt=  5.00000E-02 [y] snes_conv_reason:   11
  newton =   1 [     559] linear =   125 [     71006] cuts =  0 [   0]
  --> max chng: dpmx=   1.7723E-05 dtmpmx=   4.9610E-07

== TH FLOW =====================================================================
 Step    552 Time=  2.70000E+01 Dt=  5.00000E-02 [y] snes_conv_reason:   11
  newton =   1 [     560] linear =   123 [     71129] cuts =  0 [   0]
  --> max chng: dpmx=   1.7443E-05 dtmpmx=   4.9112E-07

== TH FLOW =====================================================================
 Step    553 Time=  2.70500E+01 Dt=  5.00000E-02 [y] snes_conv_reason:   11
  newton =   1 [     561] linear =   123 [     71252] cuts =  0 [   0]
  --> max chng: dpmx=   1.7161E-05 dtmpmx=   4.8612E-07

== TH FLOW =====================================================================
 Step    554 Time=  2.71000E+01 Dt=  5.00000E-02 [y] snes_conv_reason:   11
  newton =   1 [     562] linear =   123 [     71375] cuts =  0 [   0]
  --> max chng: dpmx=   1.6880E-05 dtmpmx=   4.8108E-07

== TH FLOW =====================================================================
 Step    555 Time=  2.71500E+01 Dt=  5.00000E-02 [y] snes_conv_reason:   11
  newton =   1 [     563] linear =   110 [     71485] cuts =  0 [   0]
  --> max chng: dpmx=   1.6605E-05 dtmpmx=   4.7598E-07

== TH FLOW =====================================================================
 Step    556 Time=  2.72000E+01 Dt=  5.00000E-02 [y] snes_conv_reason:   11
  newton =   1 [     564] linear =   116 [     71601] cuts =  0 [   0]
  --> max chng: dpmx=   1.6321E-05 dtmpmx=   4.7089E-07

== TH FLOW =====================================================================
 Step    557 Time=  2.72500E+01 Dt=  5.00000E-02 [y] snes_conv_reason:   11
  newton =   1 [     565] linear =   122 [     71723] cuts =  0 [   0]
  --> max chng: dpmx=   1.6044E-05 dtmpmx=   4.6576E-07

== TH FLOW =====================================================================
 Step    558 Time=  2.73000E+01 Dt=  5.00000E-02 [y] snes_conv_reason:   11
  newton =   1 [     566] linear =   128 [     71851] cuts =  0 [   0]
  --> max chng: dpmx=   1.5767E-05 dtmpmx=   4.6062E-07

== TH FLOW =====================================================================
 Step    559 Time=  2.73500E+01 Dt=  5.00000E-02 [y] snes_conv_reason:   11
  newton =   1 [     567] linear =   127 [     71978] cuts =  0 [   0]
  --> max chng: dpmx=   1.5494E-05 dtmpmx=   4.5542E-07

== TH FLOW =====================================================================
 Step    560 Time=  2.74000E+01 Dt=  5.00000E-02 [y] snes_conv_reason:   11
  newton =   1 [     568] linear =   122 [     72100] cuts =  0 [   0]
  --> max chng: dpmx=   1.5220E-05 dtmpmx=   4.5023E-07

== TH FLOW =====================================================================
 Step    561 Time=  2.74500E+01 Dt=  5.00000E-02 [y] snes_conv_reason:   11
  newton =   1 [     569] linear =   121 [     72221] cuts =  0 [   0]
  --> max chng: dpmx=   1.4953E-05 dtmpmx=   4.4503E-07

== TH FLOW =====================================================================
 Step    562 Time=  2.75000E+01 Dt=  5.00000E-02 [y] snes_conv_reason:   11
  newton =   1 [     570] linear =   120 [     72341] cuts =  0 [   0]
  --> max chng: dpmx=   1.4678E-05 dtmpmx=   4.3978E-07

 Wall Clock Time:  1.6167E+02 [sec]   2.6944E+00 [min]   4.4907E-02 [hr]
