
===================
  PFLOTRAN v3.0.1
===================

 Extent of Gridded Domain
  X: 2.5000000000000000 - 97.500000000000000
  Y: 2.5000000000000000 - 1277.5000000000000
  Z: 2.5000000000000000 - 2.5000000000000000


=+=+=+=+=+=+=+=+=+=+=+=+=+=+=+=+=+=+=+=+=+=+=+=+=+=+=+=+=+=+=+=+=+=+=+=+=+=+=+=+

  Initial Condition

--------------------------------------------------------------------------------
          Flow Condition:   initial
                  Region:   all
--------------------------------------------------------------------------------

  Flow Condition: initial
    Synchronize time with update: no
    Time units: yr
    Length units: m
      Datum:
        Dataset: Unnamed Ascii Dataset
          Type: dataset_ascii_type
          Transient: no
          Array Rank:  3

    Sub Condition: pressure
      Type: hydrostatic
      Gradient:
        Dataset: Unnamed Ascii Dataset
          Type: dataset_ascii_type
          Transient: no
          Array Rank:  3
      Data:
        Dataset: Unnamed Ascii Dataset
          Type: dataset_ascii_type
          Transient: no
          Array Rank:  1

    Sub Condition: temperature
      Type: dirichlet
      Gradient:
      Data:
        Dataset: Unnamed Ascii Dataset
          Type: dataset_ascii_type
          Transient: no
          Array Rank:  1

--------------------------------------------------------------------------------

=+=+=+=+=+=+=+=+=+=+=+=+=+=+=+=+=+=+=+=+=+=+=+=+=+=+=+=+=+=+=+=+=+=+=+=+=+=+=+=+

  Boundary Condition

--------------------------------------------------------------------------------
          Flow Condition:   initial
                  Region:   north
--------------------------------------------------------------------------------

  Flow Condition: initial
    Synchronize time with update: no
    Time units: yr
    Length units: m
      Datum:
        Dataset: Unnamed Ascii Dataset
          Type: dataset_ascii_type
          Transient: no
          Array Rank:  3

    Sub Condition: pressure
      Type: hydrostatic
      Gradient:
        Dataset: Unnamed Ascii Dataset
          Type: dataset_ascii_type
          Transient: no
          Array Rank:  3
      Data:
        Dataset: Unnamed Ascii Dataset
          Type: dataset_ascii_type
          Transient: no
          Array Rank:  1

    Sub Condition: temperature
      Type: dirichlet
      Gradient:
      Data:
        Dataset: Unnamed Ascii Dataset
          Type: dataset_ascii_type
          Transient: no
          Array Rank:  1

--------------------------------------------------------------------------------

=+=+=+=+=+=+=+=+=+=+=+=+=+=+=+=+=+=+=+=+=+=+=+=+=+=+=+=+=+=+=+=+=+=+=+=+=+=+=+=+

  Boundary Condition

--------------------------------------------------------------------------------
          Flow Condition:   initial
                  Region:   south
--------------------------------------------------------------------------------

  Flow Condition: initial
    Synchronize time with update: no
    Time units: yr
    Length units: m
      Datum:
        Dataset: Unnamed Ascii Dataset
          Type: dataset_ascii_type
          Transient: no
          Array Rank:  3

    Sub Condition: pressure
      Type: hydrostatic
      Gradient:
        Dataset: Unnamed Ascii Dataset
          Type: dataset_ascii_type
          Transient: no
          Array Rank:  3
      Data:
        Dataset: Unnamed Ascii Dataset
          Type: dataset_ascii_type
          Transient: no
          Array Rank:  1

    Sub Condition: temperature
      Type: dirichlet
      Gradient:
      Data:
        Dataset: Unnamed Ascii Dataset
          Type: dataset_ascii_type
          Transient: no
          Array Rank:  1

--------------------------------------------------------------------------------

=+=+=+=+=+=+=+=+=+=+=+=+=+=+=+=+=+=+=+=+=+=+=+=+=+=+=+=+=+=+=+=+=+=+=+=+=+=+=+=+

  Source Sink

--------------------------------------------------------------------------------
          Flow Condition:   injection
                  Region:   heatpump_inject0
--------------------------------------------------------------------------------

  Flow Condition: injection
    Synchronize time with update: no
    Time units: yr
    Length units: m
      Datum:

    Sub Condition: rate
      Type: scaled volumetric rate
      Gradient:
      Data:
        Dataset: Unnamed Ascii Dataset
          Type: dataset_ascii_type
          Is transient?: yes
          Number of times:      3
          Is cyclic?: no
          Buffer:
            Rank:  2
            Dims:    1   3
            Buffer Slice Size:   0
          Array Rank:  1

    Sub Condition: temperature
      Type: dirichlet
      Gradient:
      Data:
        Dataset: Unnamed Ascii Dataset
          Type: dataset_ascii_type
          Transient: no
          Array Rank:  1

--------------------------------------------------------------------------------

 Requested processors =    16

FLOW Time Stepper
                 acceleration: on
       acceleration threshold: 5
       number of ramp entries: 5
                ramp entry #1: 2.0000
                ramp entry #2: 2.0000
                ramp entry #3: 2.0000
                ramp entry #4: 2.0000
                ramp entry #5: 2.0000
                ramp entry #6: 1.8000
                ramp entry #7: 1.6000
                ramp entry #8: 1.4000
                ramp entry #9: 1.2000
               ramp entry #10: 1.0000
               ramp entry #11: 1.0000
               ramp entry #12: 1.0000
               ramp entry #13: 1.0000
      maximum number of steps: 999999
constant time steps threshold: 5
       maximum number of cuts: 16
             reduction factor: 5.000000E-01
        maximum growth factor: 2.000000E+00

FLOW Newton Solver
                         atol: 1.000000E-50
                         rtol: 1.000000E-03
                         stol: 1.000000E-08
                         dtol: 1.000000E+04
                      maxnorm: 1.000000E+20
                    inftolres: -9.990000E+02
                    inftolupd: 1.000000E+00
                 inftolrelupd: -9.990000E+02
                 inftolsclres: -9.990000E+02
                     max iter: 50
                     min iter: 1
                         maxf: 10000
                  matrix type: baij
         precond. matrix type: baij
               inexact newton: off
            print convergence: on
   print detailed convergence: off
          check infinity norm: on

FLOW Linear Solver
                       solver: bcgs
               preconditioner: bjacobi
                         atol: 1.000000E-50
                         rtol: 1.000000E-05
                         dtol: 1.000000E+04
            maximum iteration: 10000

== TH FLOW =====================================================================
 Step      1 Time=  1.00000E-05 Dt=  1.00000E-05 [y] snes_conv_reason:   11
  newton =   1 [       1] linear =    66 [        66] cuts =  0 [   0]
  --> max chng: dpmx=   8.7153E-02 dtmpmx=   6.7217E-09

== TH FLOW =====================================================================
 Step      2 Time=  3.00000E-05 Dt=  2.00000E-05 [y] snes_conv_reason:   11
  newton =   1 [       2] linear =    65 [       131] cuts =  0 [   0]
  --> max chng: dpmx=   3.7037E-02 dtmpmx=   1.3272E-08

== TH FLOW =====================================================================
 Step      3 Time=  7.00000E-05 Dt=  4.00000E-05 [y] snes_conv_reason:   11
  newton =   1 [       3] linear =    68 [       199] cuts =  0 [   0]
  --> max chng: dpmx=   8.4847E-03 dtmpmx=   2.6461E-08

== TH FLOW =====================================================================
 Step      4 Time=  1.50000E-04 Dt=  8.00000E-05 [y] snes_conv_reason:   11
  newton =   1 [       4] linear =   105 [       304] cuts =  0 [   0]
  --> max chng: dpmx=   1.0252E-03 dtmpmx=   5.2903E-08

== TH FLOW =====================================================================
 Step      5 Time=  3.10000E-04 Dt=  1.60000E-04 [y] snes_conv_reason:   11
  newton =   1 [       5] linear =   119 [       423] cuts =  0 [   0]
  --> max chng: dpmx=   6.3609E-05 dtmpmx=   1.0581E-07

== TH FLOW =====================================================================
 Step      6 Time=  6.30000E-04 Dt=  3.20000E-04 [y] snes_conv_reason:   11
  newton =   1 [       6] linear =   113 [       536] cuts =  0 [   0]
  --> max chng: dpmx=   1.5845E-06 dtmpmx=   2.1161E-07

== TH FLOW =====================================================================
 Step      7 Time=  1.27000E-03 Dt=  6.40000E-04 [y] snes_conv_reason:   11
  newton =   1 [       7] linear =   120 [       656] cuts =  0 [   0]
  --> max chng: dpmx=   1.8062E-06 dtmpmx=   4.2322E-07

== TH FLOW =====================================================================
 Step      8 Time=  2.55000E-03 Dt=  1.28000E-03 [y] snes_conv_reason:   11
  newton =   1 [       8] linear =   117 [       773] cuts =  0 [   0]
  --> max chng: dpmx=   3.6968E-06 dtmpmx=   8.4645E-07

== TH FLOW =====================================================================
 Step      9 Time=  5.11000E-03 Dt=  2.56000E-03 [y] snes_conv_reason:   11
  newton =   1 [       9] linear =   118 [       891] cuts =  0 [   0]
  --> max chng: dpmx=   7.7158E-06 dtmpmx=   1.6929E-06

== TH FLOW =====================================================================
 Step     10 Time=  1.02300E-02 Dt=  5.12000E-03 [y] snes_conv_reason:   11
  newton =   1 [      10] linear =   115 [      1006] cuts =  0 [   0]
  --> max chng: dpmx=   1.6753E-05 dtmpmx=   3.3858E-06

== TH FLOW =====================================================================
 Step     11 Time=  2.04700E-02 Dt=  1.02400E-02 [y] snes_conv_reason:   11
  newton =   1 [      11] linear =   123 [      1129] cuts =  0 [   0]
  --> max chng: dpmx=   3.8723E-05 dtmpmx=   6.7716E-06

== TH FLOW =====================================================================
 Step     12 Time=  4.09500E-02 Dt=  2.04800E-02 [y] snes_conv_reason:   11
  newton =   1 [      12] linear =   121 [      1250] cuts =  0 [   0]
  --> max chng: dpmx=   9.8333E-05 dtmpmx=   1.3543E-05

== TH FLOW =====================================================================
 Step     13 Time=  8.19100E-02 Dt=  4.09600E-02 [y] snes_conv_reason:   11
  newton =   1 [      13] linear =   122 [      1372] cuts =  0 [   0]
  --> max chng: dpmx=   2.7857E-04 dtmpmx=   2.7086E-05

== TH FLOW =====================================================================
 Step     14 Time=  1.00000E-01 Dt=  1.80900E-02 [y] snes_conv_reason:   11
  newton =   1 [      14] linear =   117 [      1489] cuts =  0 [   0]
  --> max chng: dpmx=   1.3913E-04 dtmpmx=   1.1963E-05

== TH FLOW =====================================================================
 Step     15 Time=  1.50000E-01 Dt=  5.00000E-02 [y] snes_conv_reason:   11
  newton =   1 [      15] linear =   123 [      1612] cuts =  0 [   0]
  --> max chng: dpmx=   5.0485E-04 dtmpmx=   3.3064E-05

== TH FLOW =====================================================================
 Step     16 Time=  2.00000E-01 Dt=  5.00000E-02 [y] snes_conv_reason:   11
  newton =   1 [      16] linear =   123 [      1735] cuts =  0 [   0]
  --> max chng: dpmx=   6.2396E-04 dtmpmx=   3.3064E-05

== TH FLOW =====================================================================
 Step     17 Time=  2.50000E-01 Dt=  5.00000E-02 [y] snes_conv_reason:   11
  newton =   3 [      19] linear =   325 [      2060] cuts =  0 [   0]
  --> max chng: dpmx=   5.8784E+02 dtmpmx=   3.2065E+00

== TH FLOW =====================================================================
 Step     18 Time=  3.00000E-01 Dt=  5.00000E-02 [y] snes_conv_reason:   11
  newton =   2 [      21] linear =   243 [      2303] cuts =  0 [   0]
  --> max chng: dpmx=   4.6445E+00 dtmpmx=   1.2702E+00

== TH FLOW =====================================================================
 Step     19 Time=  3.50000E-01 Dt=  5.00000E-02 [y] snes_conv_reason:   11
  newton =   2 [      23] linear =   242 [      2545] cuts =  0 [   0]
  --> max chng: dpmx=   3.1279E+00 dtmpmx=   8.7230E-01

== TH FLOW =====================================================================
 Step     20 Time=  4.00000E-01 Dt=  5.00000E-02 [y] snes_conv_reason:   11
  newton =   2 [      25] linear =   239 [      2784] cuts =  0 [   0]
  --> max chng: dpmx=   2.9023E+00 dtmpmx=   7.1110E-01

== TH FLOW =====================================================================
 Step     21 Time=  4.50000E-01 Dt=  5.00000E-02 [y] snes_conv_reason:   11
  newton =   2 [      27] linear =   241 [      3025] cuts =  0 [   0]
  --> max chng: dpmx=   2.7487E+00 dtmpmx=   6.1118E-01

== TH FLOW =====================================================================
 Step     22 Time=  5.00000E-01 Dt=  5.00000E-02 [y] snes_conv_reason:   11
  newton =   2 [      29] linear =   242 [      3267] cuts =  0 [   0]
  --> max chng: dpmx=   2.6434E+00 dtmpmx=   5.4165E-01

== TH FLOW =====================================================================
 Step     23 Time=  5.50000E-01 Dt=  5.00000E-02 [y] snes_conv_reason:    3
  newton =   1 [      30] linear =   125 [      3392] cuts =  0 [   0]
  --> max chng: dpmx=   2.5559E+00 dtmpmx=   4.9012E-01

== TH FLOW =====================================================================
 Step     24 Time=  6.00000E-01 Dt=  5.00000E-02 [y] snes_conv_reason:    3
  newton =   1 [      31] linear =   120 [      3512] cuts =  0 [   0]
  --> max chng: dpmx=   2.4890E+00 dtmpmx=   4.4980E-01

== TH FLOW =====================================================================
 Step     25 Time=  6.50000E-01 Dt=  5.00000E-02 [y] snes_conv_reason:    3
  newton =   1 [      32] linear =   123 [      3635] cuts =  0 [   0]
  --> max chng: dpmx=   2.4299E+00 dtmpmx=   4.1717E-01

== TH FLOW =====================================================================
 Step     26 Time=  7.00000E-01 Dt=  5.00000E-02 [y] snes_conv_reason:    3
  newton =   1 [      33] linear =   124 [      3759] cuts =  0 [   0]
  --> max chng: dpmx=   2.3814E+00 dtmpmx=   3.9006E-01

== TH FLOW =====================================================================
 Step     27 Time=  7.50000E-01 Dt=  5.00000E-02 [y] snes_conv_reason:    3
  newton =   1 [      34] linear =   123 [      3882] cuts =  0 [   0]
  --> max chng: dpmx=   2.3394E+00 dtmpmx=   3.6705E-01

== TH FLOW =====================================================================
 Step     28 Time=  8.00000E-01 Dt=  5.00000E-02 [y] snes_conv_reason:    3
  newton =   1 [      35] linear =   123 [      4005] cuts =  0 [   0]
  --> max chng: dpmx=   2.2991E+00 dtmpmx=   3.4721E-01

== TH FLOW =====================================================================
 Step     29 Time=  8.50000E-01 Dt=  5.00000E-02 [y] snes_conv_reason:    3
  newton =   1 [      36] linear =   124 [      4129] cuts =  0 [   0]
  --> max chng: dpmx=   2.2669E+00 dtmpmx=   3.2986E-01

== TH FLOW =====================================================================
 Step     30 Time=  9.00000E-01 Dt=  5.00000E-02 [y] snes_conv_reason:    3
  newton =   1 [      37] linear =   125 [      4254] cuts =  0 [   0]
  --> max chng: dpmx=   2.2346E+00 dtmpmx=   3.1452E-01

== TH FLOW =====================================================================
 Step     31 Time=  9.50000E-01 Dt=  5.00000E-02 [y] snes_conv_reason:    3
  newton =   1 [      38] linear =   123 [      4377] cuts =  0 [   0]
  --> max chng: dpmx=   2.2064E+00 dtmpmx=   3.0083E-01

== TH FLOW =====================================================================
 Step     32 Time=  1.00000E+00 Dt=  5.00000E-02 [y] snes_conv_reason:    3
  newton =   1 [      39] linear =   119 [      4496] cuts =  0 [   0]
  --> max chng: dpmx=   2.1801E+00 dtmpmx=   2.8851E-01

== TH FLOW =====================================================================
 Step     33 Time=  1.05000E+00 Dt=  5.00000E-02 [y] snes_conv_reason:    3
  newton =   1 [      40] linear =   124 [      4620] cuts =  0 [   0]
  --> max chng: dpmx=   2.1547E+00 dtmpmx=   2.7734E-01

== TH FLOW =====================================================================
 Step     34 Time=  1.10000E+00 Dt=  5.00000E-02 [y] snes_conv_reason:    3
  newton =   1 [      41] linear =   124 [      4744] cuts =  0 [   0]
  --> max chng: dpmx=   2.1307E+00 dtmpmx=   2.6715E-01

== TH FLOW =====================================================================
 Step     35 Time=  1.15000E+00 Dt=  5.00000E-02 [y] snes_conv_reason:    3
  newton =   1 [      42] linear =   119 [      4863] cuts =  0 [   0]
  --> max chng: dpmx=   2.1091E+00 dtmpmx=   2.5781E-01

== TH FLOW =====================================================================
 Step     36 Time=  1.20000E+00 Dt=  5.00000E-02 [y] snes_conv_reason:    3
  newton =   1 [      43] linear =   122 [      4985] cuts =  0 [   0]
  --> max chng: dpmx=   2.0883E+00 dtmpmx=   2.4921E-01

== TH FLOW =====================================================================
 Step     37 Time=  1.25000E+00 Dt=  5.00000E-02 [y] snes_conv_reason:    3
  newton =   1 [      44] linear =   122 [      5107] cuts =  0 [   0]
  --> max chng: dpmx=   2.0665E+00 dtmpmx=   2.4145E-01

== TH FLOW =====================================================================
 Step     38 Time=  1.30000E+00 Dt=  5.00000E-02 [y] snes_conv_reason:    3
  newton =   1 [      45] linear =   122 [      5229] cuts =  0 [   0]
  --> max chng: dpmx=   2.0480E+00 dtmpmx=   2.3423E-01

== TH FLOW =====================================================================
 Step     39 Time=  1.35000E+00 Dt=  5.00000E-02 [y] snes_conv_reason:    3
  newton =   1 [      46] linear =   121 [      5350] cuts =  0 [   0]
  --> max chng: dpmx=   2.0287E+00 dtmpmx=   2.2749E-01

== TH FLOW =====================================================================
 Step     40 Time=  1.40000E+00 Dt=  5.00000E-02 [y] snes_conv_reason:    3
  newton =   1 [      47] linear =   122 [      5472] cuts =  0 [   0]
  --> max chng: dpmx=   2.0113E+00 dtmpmx=   2.2118E-01

== TH FLOW =====================================================================
 Step     41 Time=  1.45000E+00 Dt=  5.00000E-02 [y] snes_conv_reason:    3
  newton =   1 [      48] linear =   122 [      5594] cuts =  0 [   0]
  --> max chng: dpmx=   1.9923E+00 dtmpmx=   2.1526E-01

== TH FLOW =====================================================================
 Step     42 Time=  1.50000E+00 Dt=  5.00000E-02 [y] snes_conv_reason:    3
  newton =   1 [      49] linear =   121 [      5715] cuts =  0 [   0]
  --> max chng: dpmx=   1.9762E+00 dtmpmx=   2.0969E-01

== TH FLOW =====================================================================
 Step     43 Time=  1.55000E+00 Dt=  5.00000E-02 [y] snes_conv_reason:    3
  newton =   1 [      50] linear =   122 [      5837] cuts =  0 [   0]
  --> max chng: dpmx=   1.9592E+00 dtmpmx=   2.0443E-01

== TH FLOW =====================================================================
 Step     44 Time=  1.60000E+00 Dt=  5.00000E-02 [y] snes_conv_reason:    3
  newton =   1 [      51] linear =   123 [      5960] cuts =  0 [   0]
  --> max chng: dpmx=   1.9422E+00 dtmpmx=   1.9946E-01

== TH FLOW =====================================================================
 Step     45 Time=  1.65000E+00 Dt=  5.00000E-02 [y] snes_conv_reason:    3
  newton =   1 [      52] linear =   113 [      6073] cuts =  0 [   0]
  --> max chng: dpmx=   1.9261E+00 dtmpmx=   1.9475E-01

== TH FLOW =====================================================================
 Step     46 Time=  1.70000E+00 Dt=  5.00000E-02 [y] snes_conv_reason:    3
  newton =   1 [      53] linear =   122 [      6195] cuts =  0 [   0]
  --> max chng: dpmx=   1.9104E+00 dtmpmx=   1.9029E-01

== TH FLOW =====================================================================
 Step     47 Time=  1.75000E+00 Dt=  5.00000E-02 [y] snes_conv_reason:    3
  newton =   1 [      54] linear =   121 [      6316] cuts =  0 [   0]
  --> max chng: dpmx=   1.8949E+00 dtmpmx=   1.8604E-01

== TH FLOW =====================================================================
 Step     48 Time=  1.80000E+00 Dt=  5.00000E-02 [y] snes_conv_reason:    3
  newton =   1 [      55] linear =   120 [      6436] cuts =  0 [   0]
  --> max chng: dpmx=   1.8806E+00 dtmpmx=   1.8200E-01

== TH FLOW =====================================================================
 Step     49 Time=  1.85000E+00 Dt=  5.00000E-02 [y] snes_conv_reason:    3
  newton =   1 [      56] linear =   122 [      6558] cuts =  0 [   0]
  --> max chng: dpmx=   1.8636E+00 dtmpmx=   1.7815E-01

== TH FLOW =====================================================================
 Step     50 Time=  1.90000E+00 Dt=  5.00000E-02 [y] snes_conv_reason:    3
  newton =   1 [      57] linear =   121 [      6679] cuts =  0 [   0]
  --> max chng: dpmx=   1.8503E+00 dtmpmx=   1.7448E-01

== TH FLOW =====================================================================
 Step     51 Time=  1.95000E+00 Dt=  5.00000E-02 [y] snes_conv_reason:    3
  newton =   1 [      58] linear =   122 [      6801] cuts =  0 [   0]
  --> max chng: dpmx=   1.8357E+00 dtmpmx=   1.7096E-01

== TH FLOW =====================================================================
 Step     52 Time=  2.00000E+00 Dt=  5.00000E-02 [y] snes_conv_reason:    3
  newton =   1 [      59] linear =   120 [      6921] cuts =  0 [   0]
  --> max chng: dpmx=   1.8211E+00 dtmpmx=   1.6760E-01

== TH FLOW =====================================================================
 Step     53 Time=  2.05000E+00 Dt=  5.00000E-02 [y] snes_conv_reason:    3
  newton =   1 [      60] linear =   123 [      7044] cuts =  0 [   0]
  --> max chng: dpmx=   1.8066E+00 dtmpmx=   1.6438E-01

== TH FLOW =====================================================================
 Step     54 Time=  2.10000E+00 Dt=  5.00000E-02 [y] snes_conv_reason:    3
  newton =   1 [      61] linear =   122 [      7166] cuts =  0 [   0]
  --> max chng: dpmx=   1.7925E+00 dtmpmx=   1.6129E-01

== TH FLOW =====================================================================
 Step     55 Time=  2.15000E+00 Dt=  5.00000E-02 [y] snes_conv_reason:    3
  newton =   1 [      62] linear =   122 [      7288] cuts =  0 [   0]
  --> max chng: dpmx=   1.7781E+00 dtmpmx=   1.5832E-01

== TH FLOW =====================================================================
 Step     56 Time=  2.20000E+00 Dt=  5.00000E-02 [y] snes_conv_reason:    3
  newton =   1 [      63] linear =   116 [      7404] cuts =  0 [   0]
  --> max chng: dpmx=   1.7653E+00 dtmpmx=   1.5547E-01

== TH FLOW =====================================================================
 Step     57 Time=  2.25000E+00 Dt=  5.00000E-02 [y] snes_conv_reason:    3
  newton =   1 [      64] linear =   120 [      7524] cuts =  0 [   0]
  --> max chng: dpmx=   1.7520E+00 dtmpmx=   1.5272E-01

== TH FLOW =====================================================================
 Step     58 Time=  2.30000E+00 Dt=  5.00000E-02 [y] snes_conv_reason:    3
  newton =   1 [      65] linear =   123 [      7647] cuts =  0 [   0]
  --> max chng: dpmx=   1.7374E+00 dtmpmx=   1.5008E-01

== TH FLOW =====================================================================
 Step     59 Time=  2.35000E+00 Dt=  5.00000E-02 [y] snes_conv_reason:    3
  newton =   1 [      66] linear =   117 [      7764] cuts =  0 [   0]
  --> max chng: dpmx=   1.7243E+00 dtmpmx=   1.4754E-01

== TH FLOW =====================================================================
 Step     60 Time=  2.40000E+00 Dt=  5.00000E-02 [y] snes_conv_reason:    3
  newton =   1 [      67] linear =   123 [      7887] cuts =  0 [   0]
  --> max chng: dpmx=   1.7109E+00 dtmpmx=   1.4508E-01

== TH FLOW =====================================================================
 Step     61 Time=  2.45000E+00 Dt=  5.00000E-02 [y] snes_conv_reason:    3
  newton =   1 [      68] linear =   121 [      8008] cuts =  0 [   0]
  --> max chng: dpmx=   1.6981E+00 dtmpmx=   1.4272E-01

== TH FLOW =====================================================================
 Step     62 Time=  2.50000E+00 Dt=  5.00000E-02 [y] snes_conv_reason:    3
  newton =   1 [      69] linear =   120 [      8128] cuts =  0 [   0]
  --> max chng: dpmx=   1.6849E+00 dtmpmx=   1.4043E-01

== TH FLOW =====================================================================
 Step     63 Time=  2.55000E+00 Dt=  5.00000E-02 [y] snes_conv_reason:    3
  newton =   1 [      70] linear =   123 [      8251] cuts =  0 [   0]
  --> max chng: dpmx=   1.6718E+00 dtmpmx=   1.3822E-01

== TH FLOW =====================================================================
 Step     64 Time=  2.60000E+00 Dt=  5.00000E-02 [y] snes_conv_reason:    3
  newton =   1 [      71] linear =   114 [      8365] cuts =  0 [   0]
  --> max chng: dpmx=   1.6585E+00 dtmpmx=   1.3608E-01

== TH FLOW =====================================================================
 Step     65 Time=  2.65000E+00 Dt=  5.00000E-02 [y] snes_conv_reason:    3
  newton =   1 [      72] linear =   121 [      8486] cuts =  0 [   0]
  --> max chng: dpmx=   1.6458E+00 dtmpmx=   1.3401E-01

== TH FLOW =====================================================================
 Step     66 Time=  2.70000E+00 Dt=  5.00000E-02 [y] snes_conv_reason:    3
  newton =   1 [      73] linear =   121 [      8607] cuts =  0 [   0]
  --> max chng: dpmx=   1.6332E+00 dtmpmx=   1.3201E-01

== TH FLOW =====================================================================
 Step     67 Time=  2.75000E+00 Dt=  5.00000E-02 [y] snes_conv_reason:    3
  newton =   1 [      74] linear =   119 [      8726] cuts =  0 [   0]
  --> max chng: dpmx=   1.6206E+00 dtmpmx=   1.3007E-01

== TH FLOW =====================================================================
 Step     68 Time=  2.80000E+00 Dt=  5.00000E-02 [y] snes_conv_reason:    3
  newton =   1 [      75] linear =   116 [      8842] cuts =  0 [   0]
  --> max chng: dpmx=   1.6072E+00 dtmpmx=   1.2819E-01

== TH FLOW =====================================================================
 Step     69 Time=  2.85000E+00 Dt=  5.00000E-02 [y] snes_conv_reason:    3
  newton =   1 [      76] linear =   118 [      8960] cuts =  0 [   0]
  --> max chng: dpmx=   1.5956E+00 dtmpmx=   1.2639E-01

== TH FLOW =====================================================================
 Step     70 Time=  2.90000E+00 Dt=  5.00000E-02 [y] snes_conv_reason:    3
  newton =   1 [      77] linear =   120 [      9080] cuts =  0 [   0]
  --> max chng: dpmx=   1.5829E+00 dtmpmx=   1.2466E-01

== TH FLOW =====================================================================
 Step     71 Time=  2.95000E+00 Dt=  5.00000E-02 [y] snes_conv_reason:    3
  newton =   1 [      78] linear =   119 [      9199] cuts =  0 [   0]
  --> max chng: dpmx=   1.5701E+00 dtmpmx=   1.2299E-01

== TH FLOW =====================================================================
 Step     72 Time=  3.00000E+00 Dt=  5.00000E-02 [y] snes_conv_reason:    3
  newton =   1 [      79] linear =   120 [      9319] cuts =  0 [   0]
  --> max chng: dpmx=   1.5574E+00 dtmpmx=   1.2136E-01

== TH FLOW =====================================================================
 Step     73 Time=  3.05000E+00 Dt=  5.00000E-02 [y] snes_conv_reason:    3
  newton =   1 [      80] linear =   118 [      9437] cuts =  0 [   0]
  --> max chng: dpmx=   1.5458E+00 dtmpmx=   1.1978E-01

== TH FLOW =====================================================================
 Step     74 Time=  3.10000E+00 Dt=  5.00000E-02 [y] snes_conv_reason:    3
  newton =   1 [      81] linear =   122 [      9559] cuts =  0 [   0]
  --> max chng: dpmx=   1.5326E+00 dtmpmx=   1.1823E-01

== TH FLOW =====================================================================
 Step     75 Time=  3.15000E+00 Dt=  5.00000E-02 [y] snes_conv_reason:    3
  newton =   1 [      82] linear =   118 [      9677] cuts =  0 [   0]
  --> max chng: dpmx=   1.5215E+00 dtmpmx=   1.1673E-01

== TH FLOW =====================================================================
 Step     76 Time=  3.20000E+00 Dt=  5.00000E-02 [y] snes_conv_reason:    3
  newton =   1 [      83] linear =   120 [      9797] cuts =  0 [   0]
  --> max chng: dpmx=   1.5086E+00 dtmpmx=   1.1527E-01

== TH FLOW =====================================================================
 Step     77 Time=  3.25000E+00 Dt=  5.00000E-02 [y] snes_conv_reason:    3
  newton =   1 [      84] linear =   119 [      9916] cuts =  0 [   0]
  --> max chng: dpmx=   1.4968E+00 dtmpmx=   1.1385E-01

== TH FLOW =====================================================================
 Step     78 Time=  3.30000E+00 Dt=  5.00000E-02 [y] snes_conv_reason:    3
  newton =   1 [      85] linear =   120 [     10036] cuts =  0 [   0]
  --> max chng: dpmx=   1.4844E+00 dtmpmx=   1.1246E-01

== TH FLOW =====================================================================
 Step     79 Time=  3.35000E+00 Dt=  5.00000E-02 [y] snes_conv_reason:    3
  newton =   1 [      86] linear =   117 [     10153] cuts =  0 [   0]
  --> max chng: dpmx=   1.4722E+00 dtmpmx=   1.1111E-01

== TH FLOW =====================================================================
 Step     80 Time=  3.40000E+00 Dt=  5.00000E-02 [y] snes_conv_reason:    3
  newton =   1 [      87] linear =   120 [     10273] cuts =  0 [   0]
  --> max chng: dpmx=   1.4601E+00 dtmpmx=   1.0979E-01

== TH FLOW =====================================================================
 Step     81 Time=  3.45000E+00 Dt=  5.00000E-02 [y] snes_conv_reason:    3
  newton =   1 [      88] linear =   116 [     10389] cuts =  0 [   0]
  --> max chng: dpmx=   1.4479E+00 dtmpmx=   1.0850E-01

== TH FLOW =====================================================================
 Step     82 Time=  3.50000E+00 Dt=  5.00000E-02 [y] snes_conv_reason:    3
  newton =   1 [      89] linear =   117 [     10506] cuts =  0 [   0]
  --> max chng: dpmx=   1.4364E+00 dtmpmx=   1.0725E-01

== TH FLOW =====================================================================
 Step     83 Time=  3.55000E+00 Dt=  5.00000E-02 [y] snes_conv_reason:    3
  newton =   1 [      90] linear =   112 [     10618] cuts =  0 [   0]
  --> max chng: dpmx=   1.4247E+00 dtmpmx=   1.0602E-01

== TH FLOW =====================================================================
 Step     84 Time=  3.60000E+00 Dt=  5.00000E-02 [y] snes_conv_reason:    3
  newton =   1 [      91] linear =   119 [     10737] cuts =  0 [   0]
  --> max chng: dpmx=   1.4129E+00 dtmpmx=   1.0482E-01

== TH FLOW =====================================================================
 Step     85 Time=  3.65000E+00 Dt=  5.00000E-02 [y] snes_conv_reason:    3
  newton =   1 [      92] linear =   119 [     10856] cuts =  0 [   0]
  --> max chng: dpmx=   1.4007E+00 dtmpmx=   1.0365E-01

== TH FLOW =====================================================================
 Step     86 Time=  3.70000E+00 Dt=  5.00000E-02 [y] snes_conv_reason:    3
  newton =   1 [      93] linear =   117 [     10973] cuts =  0 [   0]
  --> max chng: dpmx=   1.3888E+00 dtmpmx=   1.0251E-01

== TH FLOW =====================================================================
 Step     87 Time=  3.75000E+00 Dt=  5.00000E-02 [y] snes_conv_reason:    3
  newton =   1 [      94] linear =   118 [     11091] cuts =  0 [   0]
  --> max chng: dpmx=   1.3769E+00 dtmpmx=   1.0139E-01

== TH FLOW =====================================================================
 Step     88 Time=  3.80000E+00 Dt=  5.00000E-02 [y] snes_conv_reason:    3
  newton =   1 [      95] linear =   121 [     11212] cuts =  0 [   0]
  --> max chng: dpmx=   1.3654E+00 dtmpmx=   1.0030E-01

== TH FLOW =====================================================================
 Step     89 Time=  3.85000E+00 Dt=  5.00000E-02 [y] snes_conv_reason:    3
  newton =   1 [      96] linear =   101 [     11313] cuts =  0 [   0]
  --> max chng: dpmx=   1.3537E+00 dtmpmx=   9.9230E-02

== TH FLOW =====================================================================
 Step     90 Time=  3.90000E+00 Dt=  5.00000E-02 [y] snes_conv_reason:    3
  newton =   1 [      97] linear =   118 [     11431] cuts =  0 [   0]
  --> max chng: dpmx=   1.3417E+00 dtmpmx=   9.8184E-02

== TH FLOW =====================================================================
 Step     91 Time=  3.95000E+00 Dt=  5.00000E-02 [y] snes_conv_reason:    3
  newton =   1 [      98] linear =   118 [     11549] cuts =  0 [   0]
  --> max chng: dpmx=   1.3306E+00 dtmpmx=   9.7161E-02

== TH FLOW =====================================================================
 Step     92 Time=  4.00000E+00 Dt=  5.00000E-02 [y] snes_conv_reason:    3
  newton =   1 [      99] linear =   120 [     11669] cuts =  0 [   0]
  --> max chng: dpmx=   1.3184E+00 dtmpmx=   9.6160E-02

== TH FLOW =====================================================================
 Step     93 Time=  4.05000E+00 Dt=  5.00000E-02 [y] snes_conv_reason:    3
  newton =   1 [     100] linear =   127 [     11796] cuts =  0 [   0]
  --> max chng: dpmx=   1.3070E+00 dtmpmx=   9.5179E-02

== TH FLOW =====================================================================
 Step     94 Time=  4.10000E+00 Dt=  5.00000E-02 [y] snes_conv_reason:    3
  newton =   1 [     101] linear =   117 [     11913] cuts =  0 [   0]
  --> max chng: dpmx=   1.2952E+00 dtmpmx=   9.4219E-02

== TH FLOW =====================================================================
 Step     95 Time=  4.15000E+00 Dt=  5.00000E-02 [y] snes_conv_reason:    3
  newton =   1 [     102] linear =   119 [     12032] cuts =  0 [   0]
  --> max chng: dpmx=   1.2841E+00 dtmpmx=   9.3279E-02

== TH FLOW =====================================================================
 Step     96 Time=  4.20000E+00 Dt=  5.00000E-02 [y] snes_conv_reason:    3
  newton =   1 [     103] linear =   121 [     12153] cuts =  0 [   0]
  --> max chng: dpmx=   1.2717E+00 dtmpmx=   9.2357E-02

== TH FLOW =====================================================================
 Step     97 Time=  4.25000E+00 Dt=  5.00000E-02 [y] snes_conv_reason:    3
  newton =   1 [     104] linear =   123 [     12276] cuts =  0 [   0]
  --> max chng: dpmx=   1.2608E+00 dtmpmx=   9.1454E-02

== TH FLOW =====================================================================
 Step     98 Time=  4.30000E+00 Dt=  5.00000E-02 [y] snes_conv_reason:    3
  newton =   1 [     105] linear =   123 [     12399] cuts =  0 [   0]
  --> max chng: dpmx=   1.2490E+00 dtmpmx=   9.0569E-02

== TH FLOW =====================================================================
 Step     99 Time=  4.35000E+00 Dt=  5.00000E-02 [y] snes_conv_reason:    3
  newton =   1 [     106] linear =   113 [     12512] cuts =  0 [   0]
  --> max chng: dpmx=   1.2377E+00 dtmpmx=   8.9702E-02

== TH FLOW =====================================================================
 Step    100 Time=  4.40000E+00 Dt=  5.00000E-02 [y] snes_conv_reason:    3
  newton =   1 [     107] linear =   120 [     12632] cuts =  0 [   0]
  --> max chng: dpmx=   1.2261E+00 dtmpmx=   8.8873E-02

== TH FLOW =====================================================================
 Step    101 Time=  4.45000E+00 Dt=  5.00000E-02 [y] snes_conv_reason:    3
  newton =   1 [     108] linear =   117 [     12749] cuts =  0 [   0]
  --> max chng: dpmx=   1.2144E+00 dtmpmx=   8.8061E-02

== TH FLOW =====================================================================
 Step    102 Time=  4.50000E+00 Dt=  5.00000E-02 [y] snes_conv_reason:    3
  newton =   1 [     109] linear =   120 [     12869] cuts =  0 [   0]
  --> max chng: dpmx=   1.2035E+00 dtmpmx=   8.7263E-02

== TH FLOW =====================================================================
 Step    103 Time=  4.55000E+00 Dt=  5.00000E-02 [y] snes_conv_reason:    3
  newton =   1 [     110] linear =   117 [     12986] cuts =  0 [   0]
  --> max chng: dpmx=   1.1919E+00 dtmpmx=   8.6480E-02

== TH FLOW =====================================================================
 Step    104 Time=  4.60000E+00 Dt=  5.00000E-02 [y] snes_conv_reason:    3
  newton =   1 [     111] linear =   119 [     13105] cuts =  0 [   0]
  --> max chng: dpmx=   1.1806E+00 dtmpmx=   8.5710E-02

== TH FLOW =====================================================================
 Step    105 Time=  4.65000E+00 Dt=  5.00000E-02 [y] snes_conv_reason:    3
  newton =   1 [     112] linear =   122 [     13227] cuts =  0 [   0]
  --> max chng: dpmx=   1.1689E+00 dtmpmx=   8.4955E-02

== TH FLOW =====================================================================
 Step    106 Time=  4.70000E+00 Dt=  5.00000E-02 [y] snes_conv_reason:    3
  newton =   1 [     113] linear =   111 [     13338] cuts =  0 [   0]
  --> max chng: dpmx=   1.1577E+00 dtmpmx=   8.4213E-02

== TH FLOW =====================================================================
 Step    107 Time=  4.75000E+00 Dt=  5.00000E-02 [y] snes_conv_reason:    3
  newton =   1 [     114] linear =   117 [     13455] cuts =  0 [   0]
  --> max chng: dpmx=   1.1467E+00 dtmpmx=   8.3484E-02

== TH FLOW =====================================================================
 Step    108 Time=  4.80000E+00 Dt=  5.00000E-02 [y] snes_conv_reason:    3
  newton =   1 [     115] linear =   120 [     13575] cuts =  0 [   0]
  --> max chng: dpmx=   1.1347E+00 dtmpmx=   8.2767E-02

== TH FLOW =====================================================================
 Step    109 Time=  4.85000E+00 Dt=  5.00000E-02 [y] snes_conv_reason:    3
  newton =   1 [     116] linear =   117 [     13692] cuts =  0 [   0]
  --> max chng: dpmx=   1.1237E+00 dtmpmx=   8.2063E-02

== TH FLOW =====================================================================
 Step    110 Time=  4.90000E+00 Dt=  5.00000E-02 [y] snes_conv_reason:    3
  newton =   1 [     117] linear =   121 [     13813] cuts =  0 [   0]
  --> max chng: dpmx=   1.1124E+00 dtmpmx=   8.1371E-02

== TH FLOW =====================================================================
 Step    111 Time=  4.95000E+00 Dt=  5.00000E-02 [y] snes_conv_reason:    3
  newton =   1 [     118] linear =   120 [     13933] cuts =  0 [   0]
  --> max chng: dpmx=   1.1008E+00 dtmpmx=   8.0690E-02

== TH FLOW =====================================================================
 Step    112 Time=  5.00000E+00 Dt=  5.00000E-02 [y] snes_conv_reason:    3
  newton =   1 [     119] linear =   120 [     14053] cuts =  0 [   0]
  --> max chng: dpmx=   1.0901E+00 dtmpmx=   8.0021E-02

== TH FLOW =====================================================================
 Step    113 Time=  5.05000E+00 Dt=  5.00000E-02 [y] snes_conv_reason:    3
  newton =   1 [     120] linear =   118 [     14171] cuts =  0 [   0]
  --> max chng: dpmx=   1.0786E+00 dtmpmx=   7.9363E-02

== TH FLOW =====================================================================
 Step    114 Time=  5.10000E+00 Dt=  5.00000E-02 [y] snes_conv_reason:    3
  newton =   1 [     121] linear =   118 [     14289] cuts =  0 [   0]
  --> max chng: dpmx=   1.0675E+00 dtmpmx=   7.8716E-02

== TH FLOW =====================================================================
 Step    115 Time=  5.15000E+00 Dt=  5.00000E-02 [y] snes_conv_reason:    3
  newton =   1 [     122] linear =   123 [     14412] cuts =  0 [   0]
  --> max chng: dpmx=   1.0560E+00 dtmpmx=   7.8079E-02

== TH FLOW =====================================================================
 Step    116 Time=  5.20000E+00 Dt=  5.00000E-02 [y] snes_conv_reason:    3
  newton =   1 [     123] linear =   115 [     14527] cuts =  0 [   0]
  --> max chng: dpmx=   1.0449E+00 dtmpmx=   7.7453E-02

== TH FLOW =====================================================================
 Step    117 Time=  5.25000E+00 Dt=  5.00000E-02 [y] snes_conv_reason:    3
  newton =   1 [     124] linear =   121 [     14648] cuts =  0 [   0]
  --> max chng: dpmx=   1.0336E+00 dtmpmx=   7.6836E-02

== TH FLOW =====================================================================
 Step    118 Time=  5.30000E+00 Dt=  5.00000E-02 [y] snes_conv_reason:    3
  newton =   1 [     125] linear =   121 [     14769] cuts =  0 [   0]
  --> max chng: dpmx=   1.0224E+00 dtmpmx=   7.6230E-02

== TH FLOW =====================================================================
 Step    119 Time=  5.35000E+00 Dt=  5.00000E-02 [y] snes_conv_reason:    3
  newton =   1 [     126] linear =   117 [     14886] cuts =  0 [   0]
  --> max chng: dpmx=   1.0128E+00 dtmpmx=   7.5632E-02

== TH FLOW =====================================================================
 Step    120 Time=  5.40000E+00 Dt=  5.00000E-02 [y] snes_conv_reason:    3
  newton =   1 [     127] linear =   122 [     15008] cuts =  0 [   0]
  --> max chng: dpmx=   1.0212E+00 dtmpmx=   7.5044E-02

== TH FLOW =====================================================================
 Step    121 Time=  5.45000E+00 Dt=  5.00000E-02 [y] snes_conv_reason:    3
  newton =   1 [     128] linear =   117 [     15125] cuts =  0 [   0]
  --> max chng: dpmx=   1.0296E+00 dtmpmx=   7.4466E-02

== TH FLOW =====================================================================
 Step    122 Time=  5.50000E+00 Dt=  5.00000E-02 [y] snes_conv_reason:    3
  newton =   1 [     129] linear =   116 [     15241] cuts =  0 [   0]
  --> max chng: dpmx=   1.0379E+00 dtmpmx=   7.3896E-02

== TH FLOW =====================================================================
 Step    123 Time=  5.55000E+00 Dt=  5.00000E-02 [y] snes_conv_reason:    3
  newton =   1 [     130] linear =   117 [     15358] cuts =  0 [   0]
  --> max chng: dpmx=   1.0464E+00 dtmpmx=   7.3334E-02

== TH FLOW =====================================================================
 Step    124 Time=  5.60000E+00 Dt=  5.00000E-02 [y] snes_conv_reason:    3
  newton =   1 [     131] linear =   117 [     15475] cuts =  0 [   0]
  --> max chng: dpmx=   1.0545E+00 dtmpmx=   7.2782E-02

== TH FLOW =====================================================================
 Step    125 Time=  5.65000E+00 Dt=  5.00000E-02 [y] snes_conv_reason:    3
  newton =   1 [     132] linear =   117 [     15592] cuts =  0 [   0]
  --> max chng: dpmx=   1.0628E+00 dtmpmx=   7.2237E-02

== TH FLOW =====================================================================
 Step    126 Time=  5.70000E+00 Dt=  5.00000E-02 [y] snes_conv_reason:    3
  newton =   1 [     133] linear =   120 [     15712] cuts =  0 [   0]
  --> max chng: dpmx=   1.0714E+00 dtmpmx=   7.1700E-02

== TH FLOW =====================================================================
 Step    127 Time=  5.75000E+00 Dt=  5.00000E-02 [y] snes_conv_reason:    3
  newton =   1 [     134] linear =   120 [     15832] cuts =  0 [   0]
  --> max chng: dpmx=   1.0798E+00 dtmpmx=   7.1172E-02

== TH FLOW =====================================================================
 Step    128 Time=  5.80000E+00 Dt=  5.00000E-02 [y] snes_conv_reason:    3
  newton =   1 [     135] linear =   120 [     15952] cuts =  0 [   0]
  --> max chng: dpmx=   1.0882E+00 dtmpmx=   7.0651E-02

== TH FLOW =====================================================================
 Step    129 Time=  5.85000E+00 Dt=  5.00000E-02 [y] snes_conv_reason:    3
  newton =   1 [     136] linear =   121 [     16073] cuts =  0 [   0]
  --> max chng: dpmx=   1.0968E+00 dtmpmx=   7.0138E-02

== TH FLOW =====================================================================
 Step    130 Time=  5.90000E+00 Dt=  5.00000E-02 [y] snes_conv_reason:    3
  newton =   1 [     137] linear =   120 [     16193] cuts =  0 [   0]
  --> max chng: dpmx=   1.1053E+00 dtmpmx=   6.9640E-02

== TH FLOW =====================================================================
 Step    131 Time=  5.95000E+00 Dt=  5.00000E-02 [y] snes_conv_reason:    3
  newton =   1 [     138] linear =   117 [     16310] cuts =  0 [   0]
  --> max chng: dpmx=   1.1137E+00 dtmpmx=   6.9154E-02

== TH FLOW =====================================================================
 Step    132 Time=  6.00000E+00 Dt=  5.00000E-02 [y] snes_conv_reason:    3
  newton =   1 [     139] linear =   117 [     16427] cuts =  0 [   0]
  --> max chng: dpmx=   1.1221E+00 dtmpmx=   6.8675E-02

== TH FLOW =====================================================================
 Step    133 Time=  6.05000E+00 Dt=  5.00000E-02 [y] snes_conv_reason:    3
  newton =   1 [     140] linear =   119 [     16546] cuts =  0 [   0]
  --> max chng: dpmx=   1.1305E+00 dtmpmx=   6.8202E-02

== TH FLOW =====================================================================
 Step    134 Time=  6.10000E+00 Dt=  5.00000E-02 [y] snes_conv_reason:    3
  newton =   1 [     141] linear =   120 [     16666] cuts =  0 [   0]
  --> max chng: dpmx=   1.1390E+00 dtmpmx=   6.7736E-02

== TH FLOW =====================================================================
 Step    135 Time=  6.15000E+00 Dt=  5.00000E-02 [y] snes_conv_reason:    3
  newton =   1 [     142] linear =   122 [     16788] cuts =  0 [   0]
  --> max chng: dpmx=   1.1476E+00 dtmpmx=   6.7275E-02

== TH FLOW =====================================================================
 Step    136 Time=  6.20000E+00 Dt=  5.00000E-02 [y] snes_conv_reason:    3
  newton =   1 [     143] linear =   126 [     16914] cuts =  0 [   0]
  --> max chng: dpmx=   1.1562E+00 dtmpmx=   6.6821E-02

== TH FLOW =====================================================================
 Step    137 Time=  6.25000E+00 Dt=  5.00000E-02 [y] snes_conv_reason:    3
  newton =   1 [     144] linear =   126 [     17040] cuts =  0 [   0]
  --> max chng: dpmx=   1.1648E+00 dtmpmx=   6.6373E-02

== TH FLOW =====================================================================
 Step    138 Time=  6.30000E+00 Dt=  5.00000E-02 [y] snes_conv_reason:    3
  newton =   1 [     145] linear =   122 [     17162] cuts =  0 [   0]
  --> max chng: dpmx=   1.1733E+00 dtmpmx=   6.5931E-02

== TH FLOW =====================================================================
 Step    139 Time=  6.35000E+00 Dt=  5.00000E-02 [y] snes_conv_reason:    3
  newton =   1 [     146] linear =   109 [     17271] cuts =  0 [   0]
  --> max chng: dpmx=   1.1816E+00 dtmpmx=   6.5495E-02

== TH FLOW =====================================================================
 Step    140 Time=  6.40000E+00 Dt=  5.00000E-02 [y] snes_conv_reason:    3
  newton =   1 [     147] linear =   117 [     17388] cuts =  0 [   0]
  --> max chng: dpmx=   1.1906E+00 dtmpmx=   6.5064E-02

== TH FLOW =====================================================================
 Step    141 Time=  6.45000E+00 Dt=  5.00000E-02 [y] snes_conv_reason:    3
  newton =   1 [     148] linear =   117 [     17505] cuts =  0 [   0]
  --> max chng: dpmx=   1.1989E+00 dtmpmx=   6.4639E-02

== TH FLOW =====================================================================
 Step    142 Time=  6.50000E+00 Dt=  5.00000E-02 [y] snes_conv_reason:    3
  newton =   1 [     149] linear =   124 [     17629] cuts =  0 [   0]
  --> max chng: dpmx=   1.2074E+00 dtmpmx=   6.4219E-02

== TH FLOW =====================================================================
 Step    143 Time=  6.55000E+00 Dt=  5.00000E-02 [y] snes_conv_reason:    3
  newton =   1 [     150] linear =   119 [     17748] cuts =  0 [   0]
  --> max chng: dpmx=   1.2163E+00 dtmpmx=   6.3805E-02

== TH FLOW =====================================================================
 Step    144 Time=  6.60000E+00 Dt=  5.00000E-02 [y] snes_conv_reason:    3
  newton =   1 [     151] linear =   109 [     17857] cuts =  0 [   0]
  --> max chng: dpmx=   1.2245E+00 dtmpmx=   6.3395E-02

== TH FLOW =====================================================================
 Step    145 Time=  6.65000E+00 Dt=  5.00000E-02 [y] snes_conv_reason:    3
  newton =   1 [     152] linear =   121 [     17978] cuts =  0 [   0]
  --> max chng: dpmx=   1.2335E+00 dtmpmx=   6.2991E-02

== TH FLOW =====================================================================
 Step    146 Time=  6.70000E+00 Dt=  5.00000E-02 [y] snes_conv_reason:    3
  newton =   1 [     153] linear =   122 [     18100] cuts =  0 [   0]
  --> max chng: dpmx=   1.2421E+00 dtmpmx=   6.2592E-02

== TH FLOW =====================================================================
 Step    147 Time=  6.75000E+00 Dt=  5.00000E-02 [y] snes_conv_reason:    3
  newton =   1 [     154] linear =   122 [     18222] cuts =  0 [   0]
  --> max chng: dpmx=   1.2508E+00 dtmpmx=   6.2198E-02

== TH FLOW =====================================================================
 Step    148 Time=  6.80000E+00 Dt=  5.00000E-02 [y] snes_conv_reason:    3
  newton =   1 [     155] linear =   116 [     18338] cuts =  0 [   0]
  --> max chng: dpmx=   1.2593E+00 dtmpmx=   6.1808E-02

== TH FLOW =====================================================================
 Step    149 Time=  6.85000E+00 Dt=  5.00000E-02 [y] snes_conv_reason:    3
  newton =   1 [     156] linear =   120 [     18458] cuts =  0 [   0]
  --> max chng: dpmx=   1.2679E+00 dtmpmx=   6.1424E-02

== TH FLOW =====================================================================
 Step    150 Time=  6.90000E+00 Dt=  5.00000E-02 [y] snes_conv_reason:    3
  newton =   1 [     157] linear =   118 [     18576] cuts =  0 [   0]
  --> max chng: dpmx=   1.2767E+00 dtmpmx=   6.1044E-02

== TH FLOW =====================================================================
 Step    151 Time=  6.95000E+00 Dt=  5.00000E-02 [y] snes_conv_reason:    3
  newton =   1 [     158] linear =   116 [     18692] cuts =  0 [   0]
  --> max chng: dpmx=   1.2853E+00 dtmpmx=   6.0668E-02

== TH FLOW =====================================================================
 Step    152 Time=  7.00000E+00 Dt=  5.00000E-02 [y] snes_conv_reason:    3
  newton =   1 [     159] linear =   120 [     18812] cuts =  0 [   0]
  --> max chng: dpmx=   1.2939E+00 dtmpmx=   6.0297E-02

== TH FLOW =====================================================================
 Step    153 Time=  7.05000E+00 Dt=  5.00000E-02 [y] snes_conv_reason:    3
  newton =   1 [     160] linear =   115 [     18927] cuts =  0 [   0]
  --> max chng: dpmx=   1.3026E+00 dtmpmx=   5.9931E-02

== TH FLOW =====================================================================
 Step    154 Time=  7.10000E+00 Dt=  5.00000E-02 [y] snes_conv_reason:    3
  newton =   1 [     161] linear =   118 [     19045] cuts =  0 [   0]
  --> max chng: dpmx=   1.3117E+00 dtmpmx=   5.9568E-02

== TH FLOW =====================================================================
 Step    155 Time=  7.15000E+00 Dt=  5.00000E-02 [y] snes_conv_reason:    3
  newton =   1 [     162] linear =   120 [     19165] cuts =  0 [   0]
  --> max chng: dpmx=   1.3202E+00 dtmpmx=   5.9210E-02

== TH FLOW =====================================================================
 Step    156 Time=  7.20000E+00 Dt=  5.00000E-02 [y] snes_conv_reason:    3
  newton =   1 [     163] linear =   118 [     19283] cuts =  0 [   0]
  --> max chng: dpmx=   1.3290E+00 dtmpmx=   5.8857E-02

== TH FLOW =====================================================================
 Step    157 Time=  7.25000E+00 Dt=  5.00000E-02 [y] snes_conv_reason:    3
  newton =   1 [     164] linear =   117 [     19400] cuts =  0 [   0]
  --> max chng: dpmx=   1.3374E+00 dtmpmx=   5.8507E-02

== TH FLOW =====================================================================
 Step    158 Time=  7.30000E+00 Dt=  5.00000E-02 [y] snes_conv_reason:    3
  newton =   1 [     165] linear =   118 [     19518] cuts =  0 [   0]
  --> max chng: dpmx=   1.3466E+00 dtmpmx=   5.8161E-02

== TH FLOW =====================================================================
 Step    159 Time=  7.35000E+00 Dt=  5.00000E-02 [y] snes_conv_reason:    3
  newton =   1 [     166] linear =   111 [     19629] cuts =  0 [   0]
  --> max chng: dpmx=   1.3548E+00 dtmpmx=   5.7819E-02

== TH FLOW =====================================================================
 Step    160 Time=  7.40000E+00 Dt=  5.00000E-02 [y] snes_conv_reason:    3
  newton =   1 [     167] linear =   118 [     19747] cuts =  0 [   0]
  --> max chng: dpmx=   1.3638E+00 dtmpmx=   5.7481E-02

== TH FLOW =====================================================================
 Step    161 Time=  7.45000E+00 Dt=  5.00000E-02 [y] snes_conv_reason:    3
  newton =   1 [     168] linear =   118 [     19865] cuts =  0 [   0]
  --> max chng: dpmx=   1.3726E+00 dtmpmx=   5.7155E-02

== TH FLOW =====================================================================
 Step    162 Time=  7.50000E+00 Dt=  5.00000E-02 [y] snes_conv_reason:    3
  newton =   1 [     169] linear =   118 [     19983] cuts =  0 [   0]
  --> max chng: dpmx=   1.3814E+00 dtmpmx=   5.6833E-02

== TH FLOW =====================================================================
 Step    163 Time=  7.55000E+00 Dt=  5.00000E-02 [y] snes_conv_reason:    3
  newton =   1 [     170] linear =   114 [     20097] cuts =  0 [   0]
  --> max chng: dpmx=   1.3901E+00 dtmpmx=   5.6515E-02

== TH FLOW =====================================================================
 Step    164 Time=  7.60000E+00 Dt=  5.00000E-02 [y] snes_conv_reason:    3
  newton =   1 [     171] linear =   118 [     20215] cuts =  0 [   0]
  --> max chng: dpmx=   1.3991E+00 dtmpmx=   5.6199E-02

== TH FLOW =====================================================================
 Step    165 Time=  7.65000E+00 Dt=  5.00000E-02 [y] snes_conv_reason:    3
  newton =   1 [     172] linear =   110 [     20325] cuts =  0 [   0]
  --> max chng: dpmx=   1.4080E+00 dtmpmx=   5.5888E-02

== TH FLOW =====================================================================
 Step    166 Time=  7.70000E+00 Dt=  5.00000E-02 [y] snes_conv_reason:    3
  newton =   1 [     173] linear =   115 [     20440] cuts =  0 [   0]
  --> max chng: dpmx=   1.4163E+00 dtmpmx=   5.5579E-02

== TH FLOW =====================================================================
 Step    167 Time=  7.75000E+00 Dt=  5.00000E-02 [y] snes_conv_reason:    3
  newton =   1 [     174] linear =   115 [     20555] cuts =  0 [   0]
  --> max chng: dpmx=   1.4252E+00 dtmpmx=   5.5274E-02

== TH FLOW =====================================================================
 Step    168 Time=  7.80000E+00 Dt=  5.00000E-02 [y] snes_conv_reason:    3
  newton =   1 [     175] linear =   112 [     20667] cuts =  0 [   0]
  --> max chng: dpmx=   1.4341E+00 dtmpmx=   5.4972E-02

== TH FLOW =====================================================================
 Step    169 Time=  7.85000E+00 Dt=  5.00000E-02 [y] snes_conv_reason:    3
  newton =   1 [     176] linear =   118 [     20785] cuts =  0 [   0]
  --> max chng: dpmx=   1.4428E+00 dtmpmx=   5.4673E-02

== TH FLOW =====================================================================
 Step    170 Time=  7.90000E+00 Dt=  5.00000E-02 [y] snes_conv_reason:    3
  newton =   1 [     177] linear =   115 [     20900] cuts =  0 [   0]
  --> max chng: dpmx=   1.4519E+00 dtmpmx=   5.4377E-02

== TH FLOW =====================================================================
 Step    171 Time=  7.95000E+00 Dt=  5.00000E-02 [y] snes_conv_reason:    3
  newton =   1 [     178] linear =   110 [     21010] cuts =  0 [   0]
  --> max chng: dpmx=   1.4608E+00 dtmpmx=   5.4085E-02

== TH FLOW =====================================================================
 Step    172 Time=  8.00000E+00 Dt=  5.00000E-02 [y] snes_conv_reason:    3
  newton =   1 [     179] linear =   113 [     21123] cuts =  0 [   0]
  --> max chng: dpmx=   1.4694E+00 dtmpmx=   5.3795E-02

== TH FLOW =====================================================================
 Step    173 Time=  8.05000E+00 Dt=  5.00000E-02 [y] snes_conv_reason:    3
  newton =   1 [     180] linear =   115 [     21238] cuts =  0 [   0]
  --> max chng: dpmx=   1.4784E+00 dtmpmx=   5.3508E-02

== TH FLOW =====================================================================
 Step    174 Time=  8.10000E+00 Dt=  5.00000E-02 [y] snes_conv_reason:    3
  newton =   1 [     181] linear =   115 [     21353] cuts =  0 [   0]
  --> max chng: dpmx=   1.4871E+00 dtmpmx=   5.3224E-02

== TH FLOW =====================================================================
 Step    175 Time=  8.15000E+00 Dt=  5.00000E-02 [y] snes_conv_reason:    3
  newton =   1 [     182] linear =   114 [     21467] cuts =  0 [   0]
  --> max chng: dpmx=   1.4962E+00 dtmpmx=   5.2944E-02

== TH FLOW =====================================================================
 Step    176 Time=  8.20000E+00 Dt=  5.00000E-02 [y] snes_conv_reason:    3
  newton =   1 [     183] linear =   115 [     21582] cuts =  0 [   0]
  --> max chng: dpmx=   1.5050E+00 dtmpmx=   5.2665E-02

== TH FLOW =====================================================================
 Step    177 Time=  8.25000E+00 Dt=  5.00000E-02 [y] snes_conv_reason:    3
  newton =   1 [     184] linear =   117 [     21699] cuts =  0 [   0]
  --> max chng: dpmx=   1.5138E+00 dtmpmx=   5.2390E-02

== TH FLOW =====================================================================
 Step    178 Time=  8.30000E+00 Dt=  5.00000E-02 [y] snes_conv_reason:    3
  newton =   1 [     185] linear =   120 [     21819] cuts =  0 [   0]
  --> max chng: dpmx=   1.5225E+00 dtmpmx=   5.2117E-02

== TH FLOW =====================================================================
 Step    179 Time=  8.35000E+00 Dt=  5.00000E-02 [y] snes_conv_reason:    3
  newton =   1 [     186] linear =   114 [     21933] cuts =  0 [   0]
  --> max chng: dpmx=   1.5315E+00 dtmpmx=   5.1848E-02

== TH FLOW =====================================================================
 Step    180 Time=  8.40000E+00 Dt=  5.00000E-02 [y] snes_conv_reason:    3
  newton =   1 [     187] linear =   120 [     22053] cuts =  0 [   0]
  --> max chng: dpmx=   1.5404E+00 dtmpmx=   5.1580E-02

== TH FLOW =====================================================================
 Step    181 Time=  8.45000E+00 Dt=  5.00000E-02 [y] snes_conv_reason:    3
  newton =   1 [     188] linear =   113 [     22166] cuts =  0 [   0]
  --> max chng: dpmx=   1.5493E+00 dtmpmx=   5.1316E-02

== TH FLOW =====================================================================
 Step    182 Time=  8.50000E+00 Dt=  5.00000E-02 [y] snes_conv_reason:    3
  newton =   1 [     189] linear =   120 [     22286] cuts =  0 [   0]
  --> max chng: dpmx=   1.5583E+00 dtmpmx=   5.1054E-02

== TH FLOW =====================================================================
 Step    183 Time=  8.55000E+00 Dt=  5.00000E-02 [y] snes_conv_reason:    3
  newton =   1 [     190] linear =   116 [     22402] cuts =  0 [   0]
  --> max chng: dpmx=   1.5671E+00 dtmpmx=   5.0794E-02

== TH FLOW =====================================================================
 Step    184 Time=  8.60000E+00 Dt=  5.00000E-02 [y] snes_conv_reason:    3
  newton =   1 [     191] linear =   115 [     22517] cuts =  0 [   0]
  --> max chng: dpmx=   1.5760E+00 dtmpmx=   5.0537E-02

== TH FLOW =====================================================================
 Step    185 Time=  8.65000E+00 Dt=  5.00000E-02 [y] snes_conv_reason:    3
  newton =   1 [     192] linear =   115 [     22632] cuts =  0 [   0]
  --> max chng: dpmx=   1.5848E+00 dtmpmx=   5.0283E-02

== TH FLOW =====================================================================
 Step    186 Time=  8.70000E+00 Dt=  5.00000E-02 [y] snes_conv_reason:    3
  newton =   1 [     193] linear =   118 [     22750] cuts =  0 [   0]
  --> max chng: dpmx=   1.5938E+00 dtmpmx=   5.0031E-02

== TH FLOW =====================================================================
 Step    187 Time=  8.75000E+00 Dt=  5.00000E-02 [y] snes_conv_reason:    3
  newton =   1 [     194] linear =   118 [     22868] cuts =  0 [   0]
  --> max chng: dpmx=   1.6025E+00 dtmpmx=   4.9781E-02

== TH FLOW =====================================================================
 Step    188 Time=  8.80000E+00 Dt=  5.00000E-02 [y] snes_conv_reason:    3
  newton =   1 [     195] linear =   117 [     22985] cuts =  0 [   0]
  --> max chng: dpmx=   1.6113E+00 dtmpmx=   4.9534E-02

== TH FLOW =====================================================================
 Step    189 Time=  8.85000E+00 Dt=  5.00000E-02 [y] snes_conv_reason:    3
  newton =   1 [     196] linear =   116 [     23101] cuts =  0 [   0]
  --> max chng: dpmx=   1.6203E+00 dtmpmx=   4.9289E-02

== TH FLOW =====================================================================
 Step    190 Time=  8.90000E+00 Dt=  5.00000E-02 [y] snes_conv_reason:    3
  newton =   1 [     197] linear =   114 [     23215] cuts =  0 [   0]
  --> max chng: dpmx=   1.6290E+00 dtmpmx=   4.9046E-02

== TH FLOW =====================================================================
 Step    191 Time=  8.95000E+00 Dt=  5.00000E-02 [y] snes_conv_reason:    3
  newton =   1 [     198] linear =   116 [     23331] cuts =  0 [   0]
  --> max chng: dpmx=   1.6381E+00 dtmpmx=   4.8806E-02

== TH FLOW =====================================================================
 Step    192 Time=  9.00000E+00 Dt=  5.00000E-02 [y] snes_conv_reason:    3
  newton =   1 [     199] linear =   114 [     23445] cuts =  0 [   0]
  --> max chng: dpmx=   1.6467E+00 dtmpmx=   4.8572E-02

== TH FLOW =====================================================================
 Step    193 Time=  9.05000E+00 Dt=  5.00000E-02 [y] snes_conv_reason:    3
  newton =   1 [     200] linear =   118 [     23563] cuts =  0 [   0]
  --> max chng: dpmx=   1.6556E+00 dtmpmx=   4.8342E-02

== TH FLOW =====================================================================
 Step    194 Time=  9.10000E+00 Dt=  5.00000E-02 [y] snes_conv_reason:    3
  newton =   1 [     201] linear =   117 [     23680] cuts =  0 [   0]
  --> max chng: dpmx=   1.6644E+00 dtmpmx=   4.8114E-02

== TH FLOW =====================================================================
 Step    195 Time=  9.15000E+00 Dt=  5.00000E-02 [y] snes_conv_reason:    3
  newton =   1 [     202] linear =   116 [     23796] cuts =  0 [   0]
  --> max chng: dpmx=   1.6730E+00 dtmpmx=   4.7888E-02

== TH FLOW =====================================================================
 Step    196 Time=  9.20000E+00 Dt=  5.00000E-02 [y] snes_conv_reason:    3
  newton =   1 [     203] linear =   114 [     23910] cuts =  0 [   0]
  --> max chng: dpmx=   1.6815E+00 dtmpmx=   4.7663E-02

== TH FLOW =====================================================================
 Step    197 Time=  9.25000E+00 Dt=  5.00000E-02 [y] snes_conv_reason:    3
  newton =   1 [     204] linear =   114 [     24024] cuts =  0 [   0]
  --> max chng: dpmx=   1.6901E+00 dtmpmx=   4.7441E-02

== TH FLOW =====================================================================
 Step    198 Time=  9.30000E+00 Dt=  5.00000E-02 [y] snes_conv_reason:    3
  newton =   1 [     205] linear =   105 [     24129] cuts =  0 [   0]
  --> max chng: dpmx=   1.6986E+00 dtmpmx=   4.7221E-02

== TH FLOW =====================================================================
 Step    199 Time=  9.35000E+00 Dt=  5.00000E-02 [y] snes_conv_reason:    3
  newton =   1 [     206] linear =   117 [     24246] cuts =  0 [   0]
  --> max chng: dpmx=   1.7071E+00 dtmpmx=   4.7003E-02

== TH FLOW =====================================================================
 Step    200 Time=  9.40000E+00 Dt=  5.00000E-02 [y] snes_conv_reason:    3
  newton =   1 [     207] linear =   110 [     24356] cuts =  0 [   0]
  --> max chng: dpmx=   1.7154E+00 dtmpmx=   4.6786E-02

== TH FLOW =====================================================================
 Step    201 Time=  9.45000E+00 Dt=  5.00000E-02 [y] snes_conv_reason:    3
  newton =   1 [     208] linear =   113 [     24469] cuts =  0 [   0]
  --> max chng: dpmx=   1.7239E+00 dtmpmx=   4.6572E-02

== TH FLOW =====================================================================
 Step    202 Time=  9.50000E+00 Dt=  5.00000E-02 [y] snes_conv_reason:    3
  newton =   1 [     209] linear =   117 [     24586] cuts =  0 [   0]
  --> max chng: dpmx=   1.7319E+00 dtmpmx=   4.6359E-02

== TH FLOW =====================================================================
 Step    203 Time=  9.55000E+00 Dt=  5.00000E-02 [y] snes_conv_reason:    3
  newton =   1 [     210] linear =   117 [     24703] cuts =  0 [   0]
  --> max chng: dpmx=   1.7399E+00 dtmpmx=   4.6148E-02

== TH FLOW =====================================================================
 Step    204 Time=  9.60000E+00 Dt=  5.00000E-02 [y] snes_conv_reason:    3
  newton =   1 [     211] linear =   113 [     24816] cuts =  0 [   0]
  --> max chng: dpmx=   1.7477E+00 dtmpmx=   4.5939E-02

== TH FLOW =====================================================================
 Step    205 Time=  9.65000E+00 Dt=  5.00000E-02 [y] snes_conv_reason:    3
  newton =   1 [     212] linear =   113 [     24929] cuts =  0 [   0]
  --> max chng: dpmx=   1.7552E+00 dtmpmx=   4.5732E-02

== TH FLOW =====================================================================
 Step    206 Time=  9.70000E+00 Dt=  5.00000E-02 [y] snes_conv_reason:    3
  newton =   1 [     213] linear =   116 [     25045] cuts =  0 [   0]
  --> max chng: dpmx=   1.7626E+00 dtmpmx=   4.5526E-02

== TH FLOW =====================================================================
 Step    207 Time=  9.75000E+00 Dt=  5.00000E-02 [y] snes_conv_reason:    3
  newton =   1 [     214] linear =   116 [     25161] cuts =  0 [   0]
  --> max chng: dpmx=   1.7697E+00 dtmpmx=   4.5322E-02

== TH FLOW =====================================================================
 Step    208 Time=  9.80000E+00 Dt=  5.00000E-02 [y] snes_conv_reason:    3
  newton =   1 [     215] linear =   114 [     25275] cuts =  0 [   0]
  --> max chng: dpmx=   1.7768E+00 dtmpmx=   4.5120E-02

== TH FLOW =====================================================================
 Step    209 Time=  9.85000E+00 Dt=  5.00000E-02 [y] snes_conv_reason:    3
  newton =   1 [     216] linear =   118 [     25393] cuts =  0 [   0]
  --> max chng: dpmx=   1.7837E+00 dtmpmx=   4.4920E-02

== TH FLOW =====================================================================
 Step    210 Time=  9.90000E+00 Dt=  5.00000E-02 [y] snes_conv_reason:    3
  newton =   1 [     217] linear =   113 [     25506] cuts =  0 [   0]
  --> max chng: dpmx=   1.7898E+00 dtmpmx=   4.4721E-02

== TH FLOW =====================================================================
 Step    211 Time=  9.95000E+00 Dt=  5.00000E-02 [y] snes_conv_reason:    3
  newton =   1 [     218] linear =   113 [     25619] cuts =  0 [   0]
  --> max chng: dpmx=   1.7958E+00 dtmpmx=   4.4524E-02

== TH FLOW =====================================================================
 Step    212 Time=  1.00000E+01 Dt=  5.00000E-02 [y] snes_conv_reason:    3
  newton =   1 [     219] linear =   115 [     25734] cuts =  0 [   0]
  --> max chng: dpmx=   1.8016E+00 dtmpmx=   4.4328E-02

== TH FLOW =====================================================================
 Step    213 Time=  1.00500E+01 Dt=  5.00000E-02 [y] snes_conv_reason:    3
  newton =   1 [     220] linear =   118 [     25852] cuts =  0 [   0]
  --> max chng: dpmx=   1.8064E+00 dtmpmx=   4.4134E-02

== TH FLOW =====================================================================
 Step    214 Time=  1.01000E+01 Dt=  5.00000E-02 [y] snes_conv_reason:    3
  newton =   1 [     221] linear =   115 [     25967] cuts =  0 [   0]
  --> max chng: dpmx=   1.8111E+00 dtmpmx=   4.3942E-02

== TH FLOW =====================================================================
 Step    215 Time=  1.01500E+01 Dt=  5.00000E-02 [y] snes_conv_reason:    3
  newton =   1 [     222] linear =   117 [     26084] cuts =  0 [   0]
  --> max chng: dpmx=   1.8151E+00 dtmpmx=   4.3751E-02

== TH FLOW =====================================================================
 Step    216 Time=  1.02000E+01 Dt=  5.00000E-02 [y] snes_conv_reason:    3
  newton =   1 [     223] linear =   108 [     26192] cuts =  0 [   0]
  --> max chng: dpmx=   1.8185E+00 dtmpmx=   4.3562E-02

== TH FLOW =====================================================================
 Step    217 Time=  1.02500E+01 Dt=  5.00000E-02 [y] snes_conv_reason:    3
  newton =   1 [     224] linear =   116 [     26308] cuts =  0 [   0]
  --> max chng: dpmx=   1.8215E+00 dtmpmx=   4.3374E-02

== TH FLOW =====================================================================
 Step    218 Time=  1.03000E+01 Dt=  5.00000E-02 [y] snes_conv_reason:    3
  newton =   1 [     225] linear =   115 [     26423] cuts =  0 [   0]
  --> max chng: dpmx=   1.8238E+00 dtmpmx=   4.3188E-02

== TH FLOW =====================================================================
 Step    219 Time=  1.03500E+01 Dt=  5.00000E-02 [y] snes_conv_reason:    3
  newton =   1 [     226] linear =   110 [     26533] cuts =  0 [   0]
  --> max chng: dpmx=   1.8251E+00 dtmpmx=   4.3003E-02

== TH FLOW =====================================================================
 Step    220 Time=  1.04000E+01 Dt=  5.00000E-02 [y] snes_conv_reason:    3
  newton =   1 [     227] linear =   112 [     26645] cuts =  0 [   0]
  --> max chng: dpmx=   1.8257E+00 dtmpmx=   4.2820E-02

== TH FLOW =====================================================================
 Step    221 Time=  1.04500E+01 Dt=  5.00000E-02 [y] snes_conv_reason:    3
  newton =   1 [     228] linear =   110 [     26755] cuts =  0 [   0]
  --> max chng: dpmx=   1.8254E+00 dtmpmx=   4.2638E-02

== TH FLOW =====================================================================
 Step    222 Time=  1.05000E+01 Dt=  5.00000E-02 [y] snes_conv_reason:    3
  newton =   1 [     229] linear =   116 [     26871] cuts =  0 [   0]
  --> max chng: dpmx=   1.8243E+00 dtmpmx=   4.2458E-02

== TH FLOW =====================================================================
 Step    223 Time=  1.05500E+01 Dt=  5.00000E-02 [y] snes_conv_reason:    3
  newton =   1 [     230] linear =   108 [     26979] cuts =  0 [   0]
  --> max chng: dpmx=   1.8218E+00 dtmpmx=   4.2279E-02

== TH FLOW =====================================================================
 Step    224 Time=  1.06000E+01 Dt=  5.00000E-02 [y] snes_conv_reason:    3
  newton =   1 [     231] linear =   116 [     27095] cuts =  0 [   0]
  --> max chng: dpmx=   1.8186E+00 dtmpmx=   4.2106E-02

== TH FLOW =====================================================================
 Step    225 Time=  1.06500E+01 Dt=  5.00000E-02 [y] snes_conv_reason:    3
  newton =   1 [     232] linear =   115 [     27210] cuts =  0 [   0]
  --> max chng: dpmx=   1.8145E+00 dtmpmx=   4.1934E-02

== TH FLOW =====================================================================
 Step    226 Time=  1.07000E+01 Dt=  5.00000E-02 [y] snes_conv_reason:    3
  newton =   1 [     233] linear =   115 [     27325] cuts =  0 [   0]
  --> max chng: dpmx=   1.8087E+00 dtmpmx=   4.1763E-02

== TH FLOW =====================================================================
 Step    227 Time=  1.07500E+01 Dt=  5.00000E-02 [y] snes_conv_reason:    3
  newton =   1 [     234] linear =   115 [     27440] cuts =  0 [   0]
  --> max chng: dpmx=   1.8021E+00 dtmpmx=   4.1593E-02

== TH FLOW =====================================================================
 Step    228 Time=  1.08000E+01 Dt=  5.00000E-02 [y] snes_conv_reason:    3
  newton =   1 [     235] linear =   118 [     27558] cuts =  0 [   0]
  --> max chng: dpmx=   1.7940E+00 dtmpmx=   4.1425E-02

== TH FLOW =====================================================================
 Step    229 Time=  1.08500E+01 Dt=  5.00000E-02 [y] snes_conv_reason:    3
  newton =   1 [     236] linear =   115 [     27673] cuts =  0 [   0]
  --> max chng: dpmx=   1.7845E+00 dtmpmx=   4.1258E-02

== TH FLOW =====================================================================
 Step    230 Time=  1.09000E+01 Dt=  5.00000E-02 [y] snes_conv_reason:    3
  newton =   1 [     237] linear =   118 [     27791] cuts =  0 [   0]
  --> max chng: dpmx=   1.7736E+00 dtmpmx=   4.1092E-02

== TH FLOW =====================================================================
 Step    231 Time=  1.09500E+01 Dt=  5.00000E-02 [y] snes_conv_reason:    3
  newton =   1 [     238] linear =   118 [     27909] cuts =  0 [   0]
  --> max chng: dpmx=   1.7614E+00 dtmpmx=   4.0928E-02

== TH FLOW =====================================================================
 Step    232 Time=  1.10000E+01 Dt=  5.00000E-02 [y] snes_conv_reason:    3
  newton =   1 [     239] linear =   114 [     28023] cuts =  0 [   0]
  --> max chng: dpmx=   1.7475E+00 dtmpmx=   4.0764E-02

== TH FLOW =====================================================================
 Step    233 Time=  1.10500E+01 Dt=  5.00000E-02 [y] snes_conv_reason:    3
  newton =   1 [     240] linear =   118 [     28141] cuts =  0 [   0]
  --> max chng: dpmx=   1.7324E+00 dtmpmx=   4.0602E-02

== TH FLOW =====================================================================
 Step    234 Time=  1.11000E+01 Dt=  5.00000E-02 [y] snes_conv_reason:    3
  newton =   1 [     241] linear =   119 [     28260] cuts =  0 [   0]
  --> max chng: dpmx=   1.7154E+00 dtmpmx=   4.0441E-02

== TH FLOW =====================================================================
 Step    235 Time=  1.11500E+01 Dt=  5.00000E-02 [y] snes_conv_reason:    3
  newton =   1 [     242] linear =   120 [     28380] cuts =  0 [   0]
  --> max chng: dpmx=   1.6968E+00 dtmpmx=   4.0281E-02

== TH FLOW =====================================================================
 Step    236 Time=  1.12000E+01 Dt=  5.00000E-02 [y] snes_conv_reason:    3
  newton =   1 [     243] linear =   116 [     28496] cuts =  0 [   0]
  --> max chng: dpmx=   1.6767E+00 dtmpmx=   4.0122E-02

== TH FLOW =====================================================================
 Step    237 Time=  1.12500E+01 Dt=  5.00000E-02 [y] snes_conv_reason:    3
  newton =   1 [     244] linear =   112 [     28608] cuts =  0 [   0]
  --> max chng: dpmx=   1.6552E+00 dtmpmx=   3.9964E-02

== TH FLOW =====================================================================
 Step    238 Time=  1.13000E+01 Dt=  5.00000E-02 [y] snes_conv_reason:    3
  newton =   1 [     245] linear =   119 [     28727] cuts =  0 [   0]
  --> max chng: dpmx=   1.6320E+00 dtmpmx=   3.9808E-02

== TH FLOW =====================================================================
 Step    239 Time=  1.13500E+01 Dt=  5.00000E-02 [y] snes_conv_reason:    3
  newton =   1 [     246] linear =   111 [     28838] cuts =  0 [   0]
  --> max chng: dpmx=   1.6071E+00 dtmpmx=   3.9652E-02

== TH FLOW =====================================================================
 Step    240 Time=  1.14000E+01 Dt=  5.00000E-02 [y] snes_conv_reason:    3
  newton =   1 [     247] linear =   118 [     28956] cuts =  0 [   0]
  --> max chng: dpmx=   1.5805E+00 dtmpmx=   3.9498E-02

== TH FLOW =====================================================================
 Step    241 Time=  1.14500E+01 Dt=  5.00000E-02 [y] snes_conv_reason:    3
  newton =   1 [     248] linear =   111 [     29067] cuts =  0 [   0]
  --> max chng: dpmx=   1.5528E+00 dtmpmx=   3.9345E-02

== TH FLOW =====================================================================
 Step    242 Time=  1.15000E+01 Dt=  5.00000E-02 [y] snes_conv_reason:    3
  newton =   1 [     249] linear =   117 [     29184] cuts =  0 [   0]
  --> max chng: dpmx=   1.5230E+00 dtmpmx=   3.9192E-02

== TH FLOW =====================================================================
 Step    243 Time=  1.15500E+01 Dt=  5.00000E-02 [y] snes_conv_reason:    3
  newton =   1 [     250] linear =   117 [     29301] cuts =  0 [   0]
  --> max chng: dpmx=   1.4921E+00 dtmpmx=   3.9041E-02

== TH FLOW =====================================================================
 Step    244 Time=  1.16000E+01 Dt=  5.00000E-02 [y] snes_conv_reason:    3
  newton =   1 [     251] linear =   114 [     29415] cuts =  0 [   0]
  --> max chng: dpmx=   1.4599E+00 dtmpmx=   3.8891E-02

== TH FLOW =====================================================================
 Step    245 Time=  1.16500E+01 Dt=  5.00000E-02 [y] snes_conv_reason:    3
  newton =   1 [     252] linear =   113 [     29528] cuts =  0 [   0]
  --> max chng: dpmx=   1.4263E+00 dtmpmx=   3.8742E-02

== TH FLOW =====================================================================
 Step    246 Time=  1.17000E+01 Dt=  5.00000E-02 [y] snes_conv_reason:    3
  newton =   1 [     253] linear =   116 [     29644] cuts =  0 [   0]
  --> max chng: dpmx=   1.3914E+00 dtmpmx=   3.8594E-02

== TH FLOW =====================================================================
 Step    247 Time=  1.17500E+01 Dt=  5.00000E-02 [y] snes_conv_reason:    3
  newton =   1 [     254] linear =   112 [     29756] cuts =  0 [   0]
  --> max chng: dpmx=   1.3552E+00 dtmpmx=   3.8446E-02

== TH FLOW =====================================================================
 Step    248 Time=  1.18000E+01 Dt=  5.00000E-02 [y] snes_conv_reason:    3
  newton =   1 [     255] linear =   119 [     29875] cuts =  0 [   0]
  --> max chng: dpmx=   1.3182E+00 dtmpmx=   3.8300E-02

== TH FLOW =====================================================================
 Step    249 Time=  1.18500E+01 Dt=  5.00000E-02 [y] snes_conv_reason:    3
  newton =   1 [     256] linear =   118 [     29993] cuts =  0 [   0]
  --> max chng: dpmx=   1.2801E+00 dtmpmx=   3.8155E-02

== TH FLOW =====================================================================
 Step    250 Time=  1.19000E+01 Dt=  5.00000E-02 [y] snes_conv_reason:    3
  newton =   1 [     257] linear =   118 [     30111] cuts =  0 [   0]
  --> max chng: dpmx=   1.2412E+00 dtmpmx=   3.8011E-02

== TH FLOW =====================================================================
 Step    251 Time=  1.19500E+01 Dt=  5.00000E-02 [y] snes_conv_reason:    3
  newton =   1 [     258] linear =   116 [     30227] cuts =  0 [   0]
  --> max chng: dpmx=   1.2016E+00 dtmpmx=   3.7868E-02

== TH FLOW =====================================================================
 Step    252 Time=  1.20000E+01 Dt=  5.00000E-02 [y] snes_conv_reason:    3
  newton =   1 [     259] linear =   118 [     30345] cuts =  0 [   0]
  --> max chng: dpmx=   1.1612E+00 dtmpmx=   3.7725E-02

== TH FLOW =====================================================================
 Step    253 Time=  1.20500E+01 Dt=  5.00000E-02 [y] snes_conv_reason:    3
  newton =   1 [     260] linear =   112 [     30457] cuts =  0 [   0]
  --> max chng: dpmx=   1.1205E+00 dtmpmx=   3.7584E-02

== TH FLOW =====================================================================
 Step    254 Time=  1.21000E+01 Dt=  5.00000E-02 [y] snes_conv_reason:    3
  newton =   1 [     261] linear =   118 [     30575] cuts =  0 [   0]
  --> max chng: dpmx=   1.0794E+00 dtmpmx=   3.7438E-02

== TH FLOW =====================================================================
 Step    255 Time=  1.21500E+01 Dt=  5.00000E-02 [y] snes_conv_reason:    3
  newton =   1 [     262] linear =   115 [     30690] cuts =  0 [   0]
  --> max chng: dpmx=   1.0380E+00 dtmpmx=   3.7292E-02

== TH FLOW =====================================================================
 Step    256 Time=  1.22000E+01 Dt=  5.00000E-02 [y] snes_conv_reason:   11
  newton =   1 [     263] linear =   117 [     30807] cuts =  0 [   0]
  --> max chng: dpmx=   9.9671E-01 dtmpmx=   3.7052E-02

== TH FLOW =====================================================================
 Step    257 Time=  1.22500E+01 Dt=  5.00000E-02 [y] snes_conv_reason:   11
  newton =   1 [     264] linear =   120 [     30927] cuts =  0 [   0]
  --> max chng: dpmx=   9.5521E-01 dtmpmx=   3.6718E-02

[...]
 Step    493 Time=  2.40500E+01 Dt=  5.00000E-02 [y] snes_conv_reason:   11
  newton =   1 [     500] linear =   117 [     57774] cuts =  0 [   0]
  --> max chng: dpmx=   1.1132E-03 dtmpmx=   3.8861E-05

== TH FLOW =====================================================================
 Step    494 Time=  2.41000E+01 Dt=  5.00000E-02 [y] snes_conv_reason:   11
  newton =   1 [     501] linear =   121 [     57895] cuts =  0 [   0]
  --> max chng: dpmx=   1.0622E-03 dtmpmx=   3.7597E-05

== TH FLOW =====================================================================
 Step    495 Time=  2.41500E+01 Dt=  5.00000E-02 [y] snes_conv_reason:   11
  newton =   1 [     502] linear =   120 [     58015] cuts =  0 [   0]
  --> max chng: dpmx=   1.0129E-03 dtmpmx=   3.6344E-05

== TH FLOW =====================================================================
 Step    496 Time=  2.42000E+01 Dt=  5.00000E-02 [y] snes_conv_reason:   11
  newton =   1 [     503] linear =   120 [     58135] cuts =  0 [   0]
  --> max chng: dpmx=   9.6515E-04 dtmpmx=   3.5103E-05

== TH FLOW =====================================================================
 Step    497 Time=  2.42500E+01 Dt=  5.00000E-02 [y] snes_conv_reason:   11
  newton =   1 [     504] linear =   122 [     58257] cuts =  0 [   0]
  --> max chng: dpmx=   9.1879E-04 dtmpmx=   3.3876E-05

== TH FLOW =====================================================================
 Step    498 Time=  2.43000E+01 Dt=  5.00000E-02 [y] snes_conv_reason:   11
  newton =   1 [     505] linear =   122 [     58379] cuts =  0 [   0]
  --> max chng: dpmx=   8.7393E-04 dtmpmx=   3.2664E-05

== TH FLOW =====================================================================
 Step    499 Time=  2.43500E+01 Dt=  5.00000E-02 [y] snes_conv_reason:   11
  newton =   1 [     506] linear =   122 [     58501] cuts =  0 [   0]
  --> max chng: dpmx=   8.3082E-04 dtmpmx=   3.1469E-05

== TH FLOW =====================================================================
 Step    500 Time=  2.44000E+01 Dt=  5.00000E-02 [y] snes_conv_reason:   11
  newton =   1 [     507] linear =   121 [     58622] cuts =  0 [   0]
  --> max chng: dpmx=   7.8883E-04 dtmpmx=   3.0291E-05

== TH FLOW =====================================================================
 Step    501 Time=  2.44500E+01 Dt=  5.00000E-02 [y] snes_conv_reason:   11
  newton =   1 [     508] linear =   121 [     58743] cuts =  0 [   0]
  --> max chng: dpmx=   7.4856E-04 dtmpmx=   2.9131E-05

== TH FLOW =====================================================================
 Step    502 Time=  2.45000E+01 Dt=  5.00000E-02 [y] snes_conv_reason:   11
  newton =   1 [     509] linear =   121 [     58864] cuts =  0 [   0]
  --> max chng: dpmx=   7.0957E-04 dtmpmx=   2.7991E-05

== TH FLOW =====================================================================
 Step    503 Time=  2.45500E+01 Dt=  5.00000E-02 [y] snes_conv_reason:   11
  newton =   1 [     510] linear =   122 [     58986] cuts =  0 [   0]
  --> max chng: dpmx=   6.7217E-04 dtmpmx=   2.6872E-05

== TH FLOW =====================================================================
 Step    504 Time=  2.46000E+01 Dt=  5.00000E-02 [y] snes_conv_reason:   11
  newton =   1 [     511] linear =   119 [     59105] cuts =  0 [   0]
  --> max chng: dpmx=   6.3609E-04 dtmpmx=   2.5774E-05

== TH FLOW =====================================================================
 Step    505 Time=  2.46500E+01 Dt=  5.00000E-02 [y] snes_conv_reason:   11
  newton =   1 [     512] linear =   122 [     59227] cuts =  0 [   0]
  --> max chng: dpmx=   6.0145E-04 dtmpmx=   2.4699E-05

== TH FLOW =====================================================================
 Step    506 Time=  2.47000E+01 Dt=  5.00000E-02 [y] snes_conv_reason:   11
  newton =   1 [     513] linear =   122 [     59349] cuts =  0 [   0]
  --> max chng: dpmx=   5.6811E-04 dtmpmx=   2.3646E-05

== TH FLOW =====================================================================
 Step    507 Time=  2.47500E+01 Dt=  5.00000E-02 [y] snes_conv_reason:   11
  newton =   1 [     514] linear =   124 [     59473] cuts =  0 [   0]
  --> max chng: dpmx=   5.3619E-04 dtmpmx=   2.2618E-05

== TH FLOW =====================================================================
 Step    508 Time=  2.48000E+01 Dt=  5.00000E-02 [y] snes_conv_reason:   11
  newton =   1 [     515] linear =   120 [     59593] cuts =  0 [   0]
  --> max chng: dpmx=   5.0548E-04 dtmpmx=   2.1614E-05

== TH FLOW =====================================================================
 Step    509 Time=  2.48500E+01 Dt=  5.00000E-02 [y] snes_conv_reason:   11
  newton =   1 [     516] linear =   124 [     59717] cuts =  0 [   0]
  --> max chng: dpmx=   4.7611E-04 dtmpmx=   2.0634E-05

== TH FLOW =====================================================================
 Step    510 Time=  2.49000E+01 Dt=  5.00000E-02 [y] snes_conv_reason:   11
  newton =   1 [     517] linear =   125 [     59842] cuts =  0 [   0]
  --> max chng: dpmx=   4.4797E-04 dtmpmx=   1.9680E-05

== TH FLOW =====================================================================
 Step    511 Time=  2.49500E+01 Dt=  5.00000E-02 [y] snes_conv_reason:   11
  newton =   1 [     518] linear =   124 [     59966] cuts =  0 [   0]
  --> max chng: dpmx=   4.2112E-04 dtmpmx=   1.8752E-05

== TH FLOW =====================================================================
 Step    512 Time=  2.50000E+01 Dt=  5.00000E-02 [y] snes_conv_reason:   11
  newton =   1 [     519] linear =   126 [     60092] cuts =  0 [   0]
  --> max chng: dpmx=   3.9540E-04 dtmpmx=   1.7850E-05

== TH FLOW =====================================================================
 Step    513 Time=  2.50500E+01 Dt=  5.00000E-02 [y] snes_conv_reason:   11
  newton =   1 [     520] linear =   125 [     60217] cuts =  0 [   0]
  --> max chng: dpmx=   3.7091E-04 dtmpmx=   1.6974E-05

== TH FLOW =====================================================================
 Step    514 Time=  2.51000E+01 Dt=  5.00000E-02 [y] snes_conv_reason:   11
  newton =   1 [     521] linear =   127 [     60344] cuts =  0 [   0]
  --> max chng: dpmx=   3.4748E-04 dtmpmx=   1.6125E-05

== TH FLOW =====================================================================
 Step    515 Time=  2.51500E+01 Dt=  5.00000E-02 [y] snes_conv_reason:   11
  newton =   1 [     522] linear =   130 [     60474] cuts =  0 [   0]
  --> max chng: dpmx=   3.2529E-04 dtmpmx=   1.5302E-05

== TH FLOW =====================================================================
 Step    516 Time=  2.52000E+01 Dt=  5.00000E-02 [y] snes_conv_reason:   11
  newton =   1 [     523] linear =   125 [     60599] cuts =  0 [   0]
  --> max chng: dpmx=   3.0404E-04 dtmpmx=   1.4506E-05

== TH FLOW =====================================================================
 Step    517 Time=  2.52500E+01 Dt=  5.00000E-02 [y] snes_conv_reason:   11
  newton =   1 [     524] linear =   124 [     60723] cuts =  0 [   0]
  --> max chng: dpmx=   2.8389E-04 dtmpmx=   1.3736E-05

== TH FLOW =====================================================================
 Step    518 Time=  2.53000E+01 Dt=  5.00000E-02 [y] snes_conv_reason:   11
  newton =   1 [     525] linear =   124 [     60847] cuts =  0 [   0]
  --> max chng: dpmx=   2.6473E-04 dtmpmx=   1.2993E-05

== TH FLOW =====================================================================
 Step    519 Time=  2.53500E+01 Dt=  5.00000E-02 [y] snes_conv_reason:   11
  newton =   1 [     526] linear =   122 [     60969] cuts =  0 [   0]
  --> max chng: dpmx=   2.4655E-04 dtmpmx=   1.2277E-05

== TH FLOW =====================================================================
 Step    520 Time=  2.54000E+01 Dt=  5.00000E-02 [y] snes_conv_reason:   11
  newton =   1 [     527] linear =   122 [     61091] cuts =  0 [   0]
  --> max chng: dpmx=   2.2939E-04 dtmpmx=   1.1587E-05

== TH FLOW =====================================================================
 Step    521 Time=  2.54500E+01 Dt=  5.00000E-02 [y] snes_conv_reason:   11
  newton =   1 [     528] linear =   122 [     61213] cuts =  0 [   0]
  --> max chng: dpmx=   2.1304E-04 dtmpmx=   1.0923E-05

== TH FLOW =====================================================================
 Step    522 Time=  2.55000E+01 Dt=  5.00000E-02 [y] snes_conv_reason:   11
  newton =   1 [     529] linear =   123 [     61336] cuts =  0 [   0]
  --> max chng: dpmx=   1.9765E-04 dtmpmx=   1.0284E-05

== TH FLOW =====================================================================
 Step    523 Time=  2.55500E+01 Dt=  5.00000E-02 [y] snes_conv_reason:   11
  newton =   1 [     530] linear =   120 [     61456] cuts =  0 [   0]
  --> max chng: dpmx=   1.8304E-04 dtmpmx=   9.6712E-06

== TH FLOW =====================================================================
 Step    524 Time=  2.56000E+01 Dt=  5.00000E-02 [y] snes_conv_reason:   11
  newton =   1 [     531] linear =   124 [     61580] cuts =  0 [   0]
  --> max chng: dpmx=   1.6930E-04 dtmpmx=   9.0832E-06

== TH FLOW =====================================================================
 Step    525 Time=  2.56500E+01 Dt=  5.00000E-02 [y] snes_conv_reason:   11
  newton =   1 [     532] linear =   121 [     61701] cuts =  0 [   0]
  --> max chng: dpmx=   1.5635E-04 dtmpmx=   8.5198E-06

== TH FLOW =====================================================================
 Step    526 Time=  2.57000E+01 Dt=  5.00000E-02 [y] snes_conv_reason:   11
  newton =   1 [     533] linear =   123 [     61824] cuts =  0 [   0]
  --> max chng: dpmx=   1.4412E-04 dtmpmx=   7.9806E-06

== TH FLOW =====================================================================
 Step    527 Time=  2.57500E+01 Dt=  5.00000E-02 [y] snes_conv_reason:   11
  newton =   1 [     534] linear =   124 [     61948] cuts =  0 [   0]
  --> max chng: dpmx=   1.3266E-04 dtmpmx=   7.4651E-06

== TH FLOW =====================================================================
 Step    528 Time=  2.58000E+01 Dt=  5.00000E-02 [y] snes_conv_reason:   11
  newton =   1 [     535] linear =   124 [     62072] cuts =  0 [   0]
  --> max chng: dpmx=   1.2186E-04 dtmpmx=   6.9728E-06

== TH FLOW =====================================================================
 Step    529 Time=  2.58500E+01 Dt=  5.00000E-02 [y] snes_conv_reason:   11
  newton =   1 [     536] linear =   127 [     62199] cuts =  0 [   0]
  --> max chng: dpmx=   1.1175E-04 dtmpmx=   6.5030E-06

== TH FLOW =====================================================================
 Step    530 Time=  2.59000E+01 Dt=  5.00000E-02 [y] snes_conv_reason:   11
  newton =   1 [     537] linear =   122 [     62321] cuts =  0 [   0]
  --> max chng: dpmx=   1.0228E-04 dtmpmx=   6.0554E-06

== TH FLOW =====================================================================
 Step    531 Time=  2.59500E+01 Dt=  5.00000E-02 [y] snes_conv_reason:   11
  newton =   1 [     538] linear =   124 [     62445] cuts =  0 [   0]
  --> max chng: dpmx=   9.3392E-05 dtmpmx=   5.6293E-06

== TH FLOW =====================================================================
 Step    532 Time=  2.60000E+01 Dt=  5.00000E-02 [y] snes_conv_reason:   11
  newton =   1 [     539] linear =   122 [     62567] cuts =  0 [   0]
  --> max chng: dpmx=   8.5127E-05 dtmpmx=   5.2241E-06

== TH FLOW =====================================================================
 Step    533 Time=  2.60500E+01 Dt=  5.00000E-02 [y] snes_conv_reason:   11
  newton =   1 [     540] linear =   122 [     62689] cuts =  0 [   0]
  --> max chng: dpmx=   7.7394E-05 dtmpmx=   4.8391E-06

== TH FLOW =====================================================================
 Step    534 Time=  2.61000E+01 Dt=  5.00000E-02 [y] snes_conv_reason:   11
  newton =   1 [     541] linear =   122 [     62811] cuts =  0 [   0]
  --> max chng: dpmx=   7.0179E-05 dtmpmx=   4.4739E-06

== TH FLOW =====================================================================
 Step    535 Time=  2.61500E+01 Dt=  5.00000E-02 [y] snes_conv_reason:   11
  newton =   1 [     542] linear =   124 [     62935] cuts =  0 [   0]
  --> max chng: dpmx=   6.3497E-05 dtmpmx=   4.1276E-06

== TH FLOW =====================================================================
 Step    536 Time=  2.62000E+01 Dt=  5.00000E-02 [y] snes_conv_reason:   11
  newton =   1 [     543] linear =   122 [     63057] cuts =  0 [   0]
  --> max chng: dpmx=   5.7285E-05 dtmpmx=   3.7998E-06

== TH FLOW =====================================================================
 Step    537 Time=  2.62500E+01 Dt=  5.00000E-02 [y] snes_conv_reason:   11
  newton =   1 [     544] linear =   122 [     63179] cuts =  0 [   0]
  --> max chng: dpmx=   5.1519E-05 dtmpmx=   3.4897E-06

== TH FLOW =====================================================================
 Step    538 Time=  2.63000E+01 Dt=  5.00000E-02 [y] snes_conv_reason:   11
  newton =   1 [     545] linear =   121 [     63300] cuts =  0 [   0]
  --> max chng: dpmx=   4.6191E-05 dtmpmx=   3.1967E-06

== TH FLOW =====================================================================
 Step    539 Time=  2.63500E+01 Dt=  5.00000E-02 [y] snes_conv_reason:   11
  newton =   1 [     546] linear =   122 [     63422] cuts =  0 [   0]
  --> max chng: dpmx=   4.1283E-05 dtmpmx=   2.9202E-06

== TH FLOW =====================================================================
 Step    540 Time=  2.64000E+01 Dt=  5.00000E-02 [y] snes_conv_reason:   11
  newton =   1 [     547] linear =   125 [     63547] cuts =  0 [   0]
  --> max chng: dpmx=   3.6831E-05 dtmpmx=   2.6595E-06

== TH FLOW =====================================================================
 Step    541 Time=  2.64500E+01 Dt=  5.00000E-02 [y] snes_conv_reason:   11
  newton =   1 [     548] linear =   122 [     63669] cuts =  0 [   0]
  --> max chng: dpmx=   3.8999E-05 dtmpmx=   2.4140E-06

== TH FLOW =====================================================================
 Step    542 Time=  2.65000E+01 Dt=  5.00000E-02 [y] snes_conv_reason:   11
  newton =   1 [     549] linear =   122 [     63791] cuts =  0 [   0]
  --> max chng: dpmx=   4.1044E-05 dtmpmx=   2.1830E-06

== TH FLOW =====================================================================
 Step    543 Time=  2.65500E+01 Dt=  5.00000E-02 [y] snes_conv_reason:   11
  newton =   1 [     550] linear =   124 [     63915] cuts =  0 [   0]
  --> max chng: dpmx=   4.2951E-05 dtmpmx=   1.9660E-06

== TH FLOW =====================================================================
 Step    544 Time=  2.66000E+01 Dt=  5.00000E-02 [y] snes_conv_reason:   11
  newton =   1 [     551] linear =   119 [     64034] cuts =  0 [   0]
  --> max chng: dpmx=   4.4722E-05 dtmpmx=   1.7623E-06

== TH FLOW =====================================================================
 Step    545 Time=  2.66500E+01 Dt=  5.00000E-02 [y] snes_conv_reason:   11
  newton =   1 [     552] linear =   120 [     64154] cuts =  0 [   0]
  --> max chng: dpmx=   4.6370E-05 dtmpmx=   1.5712E-06

== TH FLOW =====================================================================
 Step    546 Time=  2.67000E+01 Dt=  5.00000E-02 [y] snes_conv_reason:   11
  newton =   1 [     553] linear =   121 [     64275] cuts =  0 [   0]
  --> max chng: dpmx=   4.7887E-05 dtmpmx=   1.3923E-06

== TH FLOW =====================================================================
 Step    547 Time=  2.67500E+01 Dt=  5.00000E-02 [y] snes_conv_reason:   11
  newton =   1 [     554] linear =   126 [     64401] cuts =  0 [   0]
  --> max chng: dpmx=   4.9283E-05 dtmpmx=   1.2250E-06

== TH FLOW =====================================================================
 Step    548 Time=  2.68000E+01 Dt=  5.00000E-02 [y] snes_conv_reason:   11
  newton =   1 [     555] linear =   120 [     64521] cuts =  0 [   0]
  --> max chng: dpmx=   5.0559E-05 dtmpmx=   1.0685E-06

== TH FLOW =====================================================================
 Step    549 Time=  2.68500E+01 Dt=  5.00000E-02 [y] snes_conv_reason:   11
  newton =   1 [     556] linear =   122 [     64643] cuts =  0 [   0]
  --> max chng: dpmx=   5.1722E-05 dtmpmx=   9.2502E-07

== TH FLOW =====================================================================
 Step    550 Time=  2.69000E+01 Dt=  5.00000E-02 [y] snes_conv_reason:   11
  newton =   1 [     557] linear =   119 [     64762] cuts =  0 [   0]
  --> max chng: dpmx=   5.2769E-05 dtmpmx=   7.9198E-07

== TH FLOW =====================================================================
 Step    551 Time=  2.69500E+01 Dt=  5.00000E-02 [y] snes_conv_reason:   11
  newton =   1 [     558] linear =   108 [     64870] cuts =  0 [   0]
  --> max chng: dpmx=   5.3730E-05 dtmpmx=   7.4020E-07

== TH FLOW =====================================================================
 Step    552 Time=  2.70000E+01 Dt=  5.00000E-02 [y] snes_conv_reason:   11
  newton =   1 [     559] linear =   121 [     64991] cuts =  0 [   0]
  --> max chng: dpmx=   5.4567E-05 dtmpmx=   7.3926E-07

== TH FLOW =====================================================================
 Step    553 Time=  2.70500E+01 Dt=  5.00000E-02 [y] snes_conv_reason:   11
  newton =   1 [     560] linear =   119 [     65110] cuts =  0 [   0]
  --> max chng: dpmx=   5.5325E-05 dtmpmx=   7.3834E-07

== TH FLOW =====================================================================
 Step    554 Time=  2.71000E+01 Dt=  5.00000E-02 [y] snes_conv_reason:   11
  newton =   1 [     561] linear =   114 [     65224] cuts =  0 [   0]
  --> max chng: dpmx=   5.5993E-05 dtmpmx=   7.3738E-07

== TH FLOW =====================================================================
 Step    555 Time=  2.71500E+01 Dt=  5.00000E-02 [y] snes_conv_reason:   11
  newton =   1 [     562] linear =   118 [     65342] cuts =  0 [   0]
  --> max chng: dpmx=   5.6570E-05 dtmpmx=   7.3642E-07

== TH FLOW =====================================================================
 Step    556 Time=  2.72000E+01 Dt=  5.00000E-02 [y] snes_conv_reason:   11
  newton =   1 [     563] linear =   115 [     65457] cuts =  0 [   0]
  --> max chng: dpmx=   5.7062E-05 dtmpmx=   7.3565E-07

== TH FLOW =====================================================================
 Step    557 Time=  2.72500E+01 Dt=  5.00000E-02 [y] snes_conv_reason:   11
  newton =   1 [     564] linear =   112 [     65569] cuts =  0 [   0]
  --> max chng: dpmx=   5.7493E-05 dtmpmx=   7.3492E-07

== TH FLOW =====================================================================
 Step    558 Time=  2.73000E+01 Dt=  5.00000E-02 [y] snes_conv_reason:   11
  newton =   1 [     565] linear =   116 [     65685] cuts =  0 [   0]
  --> max chng: dpmx=   5.7843E-05 dtmpmx=   7.3419E-07

== TH FLOW =====================================================================
 Step    559 Time=  2.73500E+01 Dt=  5.00000E-02 [y] snes_conv_reason:   11
  newton =   1 [     566] linear =   110 [     65795] cuts =  0 [   0]
  --> max chng: dpmx=   5.8133E-05 dtmpmx=   7.3342E-07

== TH FLOW =====================================================================
 Step    560 Time=  2.74000E+01 Dt=  5.00000E-02 [y] snes_conv_reason:   11
  newton =   1 [     567] linear =   115 [     65910] cuts =  0 [   0]
  --> max chng: dpmx=   5.8359E-05 dtmpmx=   7.3268E-07

== TH FLOW =====================================================================
 Step    561 Time=  2.74500E+01 Dt=  5.00000E-02 [y] snes_conv_reason:   11
  newton =   1 [     568] linear =   107 [     66017] cuts =  0 [   0]
  --> max chng: dpmx=   5.8521E-05 dtmpmx=   7.3195E-07

== TH FLOW =====================================================================
 Step    562 Time=  2.75000E+01 Dt=  5.00000E-02 [y] snes_conv_reason:   11
  newton =   1 [     569] linear =   110 [     66127] cuts =  0 [   0]
  --> max chng: dpmx=   5.8632E-05 dtmpmx=   7.3122E-07

 Wall Clock Time:  1.9419E+02 [sec]   3.2365E+00 [min]   5.3941E-02 [hr]
