
===================
  PFLOTRAN v3.0.1
===================

 Extent of Gridded Domain
  X: 2.5000000000000000 - 97.500000000000000
  Y: 2.5000000000000000 - 1277.5000000000000
  Z: 2.5000000000000000 - 2.5000000000000000


=+=+=+=+=+=+=+=+=+=+=+=+=+=+=+=+=+=+=+=+=+=+=+=+=+=+=+=+=+=+=+=+=+=+=+=+=+=+=+=+

  Initial Condition

--------------------------------------------------------------------------------
          Flow Condition:   initial
                  Region:   all
--------------------------------------------------------------------------------

  Flow Condition: initial
    Synchronize time with update: no
    Time units: yr
    Length units: m
      Datum:
        Dataset: Unnamed Ascii Dataset
          Type: dataset_ascii_type
          Transient: no
          Array Rank:  3

    Sub Condition: pressure
      Type: hydrostatic
      Gradient:
        Dataset: Unnamed Ascii Dataset
          Type: dataset_ascii_type
          Transient: no
          Array Rank:  3
      Data:
        Dataset: Unnamed Ascii Dataset
          Type: dataset_ascii_type
          Transient: no
          Array Rank:  1

    Sub Condition: temperature
      Type: dirichlet
      Gradient:
      Data:
        Dataset: Unnamed Ascii Dataset
          Type: dataset_ascii_type
          Transient: no
          Array Rank:  1

--------------------------------------------------------------------------------

=+=+=+=+=+=+=+=+=+=+=+=+=+=+=+=+=+=+=+=+=+=+=+=+=+=+=+=+=+=+=+=+=+=+=+=+=+=+=+=+

  Boundary Condition

--------------------------------------------------------------------------------
          Flow Condition:   initial
                  Region:   north
--------------------------------------------------------------------------------

  Flow Condition: initial
    Synchronize time with update: no
    Time units: yr
    Length units: m
      Datum:
        Dataset: Unnamed Ascii Dataset
          Type: dataset_ascii_type
          Transient: no
          Array Rank:  3

    Sub Condition: pressure
      Type: hydrostatic
      Gradient:
        Dataset: Unnamed Ascii Dataset
          Type: dataset_ascii_type
          Transient: no
          Array Rank:  3
      Data:
        Dataset: Unnamed Ascii Dataset
          Type: dataset_ascii_type
          Transient: no
          Array Rank:  1

    Sub Condition: temperature
      Type: dirichlet
      Gradient:
      Data:
        Dataset: Unnamed Ascii Dataset
          Type: dataset_ascii_type
          Transient: no
          Array Rank:  1

--------------------------------------------------------------------------------

=+=+=+=+=+=+=+=+=+=+=+=+=+=+=+=+=+=+=+=+=+=+=+=+=+=+=+=+=+=+=+=+=+=+=+=+=+=+=+=+

  Boundary Condition

--------------------------------------------------------------------------------
          Flow Condition:   initial
                  Region:   south
--------------------------------------------------------------------------------

  Flow Condition: initial
    Synchronize time with update: no
    Time units: yr
    Length units: m
      Datum:
        Dataset: Unnamed Ascii Dataset
          Type: dataset_ascii_type
          Transient: no
          Array Rank:  3

    Sub Condition: pressure
      Type: hydrostatic
      Gradient:
        Dataset: Unnamed Ascii Dataset
          Type: dataset_ascii_type
          Transient: no
          Array Rank:  3
      Data:
        Dataset: Unnamed Ascii Dataset
          Type: dataset_ascii_type
          Transient: no
          Array Rank:  1

    Sub Condition: temperature
      Type: dirichlet
      Gradient:
      Data:
        Dataset: Unnamed Ascii Dataset
          Type: dataset_ascii_type
          Transient: no
          Array Rank:  1

--------------------------------------------------------------------------------

=+=+=+=+=+=+=+=+=+=+=+=+=+=+=+=+=+=+=+=+=+=+=+=+=+=+=+=+=+=+=+=+=+=+=+=+=+=+=+=+

  Source Sink

--------------------------------------------------------------------------------
          Flow Condition:   injection
                  Region:   heatpump_inject0
--------------------------------------------------------------------------------

  Flow Condition: injection
    Synchronize time with update: no
    Time units: yr
    Length units: m
      Datum:

    Sub Condition: rate
      Type: scaled volumetric rate
      Gradient:
      Data:
        Dataset: Unnamed Ascii Dataset
          Type: dataset_ascii_type
          Is transient?: yes
          Number of times:      3
          Is cyclic?: no
          Buffer:
            Rank:  2
            Dims:    1   3
            Buffer Slice Size:   0
          Array Rank:  1

    Sub Condition: temperature
      Type: dirichlet
      Gradient:
      Data:
        Dataset: Unnamed Ascii Dataset
          Type: dataset_ascii_type
          Transient: no
          Array Rank:  1

--------------------------------------------------------------------------------

 Requested processors =    32

FLOW Time Stepper
                 acceleration: on
       acceleration threshold: 5
       number of ramp entries: 5
                ramp entry #1: 2.0000
                ramp entry #2: 2.0000
                ramp entry #3: 2.0000
                ramp entry #4: 2.0000
                ramp entry #5: 2.0000
                ramp entry #6: 1.8000
                ramp entry #7: 1.6000
                ramp entry #8: 1.4000
                ramp entry #9: 1.2000
               ramp entry #10: 1.0000
               ramp entry #11: 1.0000
               ramp entry #12: 1.0000
               ramp entry #13: 1.0000
      maximum number of steps: 999999
constant time steps threshold: 5
       maximum number of cuts: 16
             reduction factor: 5.000000E-01
        maximum growth factor: 2.000000E+00

FLOW Newton Solver
                         atol: 1.000000E-50
                         rtol: 1.000000E-03
                         stol: 1.000000E-08
                         dtol: 1.000000E+04
                      maxnorm: 1.000000E+20
                    inftolres: -9.990000E+02
                    inftolupd: 1.000000E+00
                 inftolrelupd: -9.990000E+02
                 inftolsclres: -9.990000E+02
                     max iter: 50
                     min iter: 1
                         maxf: 10000
                  matrix type: baij
         precond. matrix type: baij
               inexact newton: off
            print convergence: on
   print detailed convergence: off
          check infinity norm: on

FLOW Linear Solver
                       solver: bcgs
               preconditioner: bjacobi
                         atol: 1.000000E-50
                         rtol: 1.000000E-05
                         dtol: 1.000000E+04
            maximum iteration: 10000

== TH FLOW =====================================================================
 Step      1 Time=  1.00000E-05 Dt=  1.00000E-05 [y] snes_conv_reason:   11
  newton =   1 [       1] linear =   100 [       100] cuts =  0 [   0]
  --> max chng: dpmx=   8.8003E-03 dtmpmx=   3.2320E-10

== TH FLOW =====================================================================
 Step      2 Time=  3.00000E-05 Dt=  2.00000E-05 [y] snes_conv_reason:   11
  newton =   1 [       2] linear =   108 [       208] cuts =  0 [   0]
  --> max chng: dpmx=   1.1737E-02 dtmpmx=   6.3907E-10

== TH FLOW =====================================================================
 Step      3 Time=  7.00000E-05 Dt=  4.00000E-05 [y] snes_conv_reason:   11
  newton =   1 [       3] linear =   112 [       320] cuts =  0 [   0]
  --> max chng: dpmx=   1.0790E-02 dtmpmx=   1.2623E-09

== TH FLOW =====================================================================
 Step      4 Time=  1.50000E-04 Dt=  8.00000E-05 [y] snes_conv_reason:   11
  newton =   1 [       4] linear =   118 [       438] cuts =  0 [   0]
  --> max chng: dpmx=   6.2904E-03 dtmpmx=   2.5054E-09

== TH FLOW =====================================================================
 Step      5 Time=  3.10000E-04 Dt=  1.60000E-04 [y] snes_conv_reason:   11
  newton =   1 [       5] linear =   129 [       567] cuts =  0 [   0]
  --> max chng: dpmx=   2.1371E-03 dtmpmx=   4.9977E-09

== TH FLOW =====================================================================
 Step      6 Time=  6.30000E-04 Dt=  3.20000E-04 [y] snes_conv_reason:   11
  newton =   1 [       6] linear =   118 [       685] cuts =  0 [   0]
  --> max chng: dpmx=   3.9644E-04 dtmpmx=   9.9906E-09

== TH FLOW =====================================================================
 Step      7 Time=  1.27000E-03 Dt=  6.40000E-04 [y] snes_conv_reason:   11
  newton =   1 [       7] linear =   104 [       789] cuts =  0 [   0]
  --> max chng: dpmx=   3.8536E-05 dtmpmx=   1.9981E-08

== TH FLOW =====================================================================
 Step      8 Time=  2.55000E-03 Dt=  1.28000E-03 [y] snes_conv_reason:   11
  newton =   1 [       8] linear =   119 [       908] cuts =  0 [   0]
  --> max chng: dpmx=   1.8753E-06 dtmpmx=   3.9961E-08

== TH FLOW =====================================================================
 Step      9 Time=  5.11000E-03 Dt=  2.56000E-03 [y] snes_conv_reason:   11
  newton =   1 [       9] linear =   129 [      1037] cuts =  0 [   0]
  --> max chng: dpmx=   1.8335E-07 dtmpmx=   7.9922E-08

== TH FLOW =====================================================================
 Step     10 Time=  1.02300E-02 Dt=  5.12000E-03 [y] snes_conv_reason:   11
  newton =   1 [      10] linear =   129 [      1166] cuts =  0 [   0]
  --> max chng: dpmx=   3.7218E-07 dtmpmx=   1.5984E-07

== TH FLOW =====================================================================
 Step     11 Time=  2.04700E-02 Dt=  1.02400E-02 [y] snes_conv_reason:   11
  newton =   1 [      11] linear =   126 [      1292] cuts =  0 [   0]
  --> max chng: dpmx=   7.5775E-07 dtmpmx=   3.1969E-07

== TH FLOW =====================================================================
 Step     12 Time=  4.09500E-02 Dt=  2.04800E-02 [y] snes_conv_reason:   11
  newton =   1 [      12] linear =   122 [      1414] cuts =  0 [   0]
  --> max chng: dpmx=   1.5686E-06 dtmpmx=   6.3938E-07

== TH FLOW =====================================================================
 Step     13 Time=  8.19100E-02 Dt=  4.09600E-02 [y] snes_conv_reason:   11
  newton =   1 [      13] linear =   125 [      1539] cuts =  0 [   0]
  --> max chng: dpmx=   3.3423E-06 dtmpmx=   1.2788E-06

== TH FLOW =====================================================================
 Step     14 Time=  1.00000E-01 Dt=  1.80900E-02 [y] snes_conv_reason:   11
  newton =   1 [      14] linear =   127 [      1666] cuts =  0 [   0]
  --> max chng: dpmx=   1.5177E-06 dtmpmx=   5.6476E-07

== TH FLOW =====================================================================
 Step     15 Time=  1.50000E-01 Dt=  5.00000E-02 [y] snes_conv_reason:   11
  newton =   1 [      15] linear =   126 [      1792] cuts =  0 [   0]
  --> max chng: dpmx=   4.5056E-06 dtmpmx=   1.5610E-06

== TH FLOW =====================================================================
 Step     16 Time=  2.00000E-01 Dt=  5.00000E-02 [y] snes_conv_reason:   11
  newton =   1 [      16] linear =   114 [      1906] cuts =  0 [   0]
  --> max chng: dpmx=   4.8102E-06 dtmpmx=   1.5610E-06

== TH FLOW =====================================================================
 Step     17 Time=  2.50000E-01 Dt=  5.00000E-02 [y] snes_conv_reason:    3
  newton =   4 [      20] linear =   527 [      2433] cuts =  0 [   0]
  --> max chng: dpmx=   3.7482E+03 dtmpmx=   3.5020E+00

== TH FLOW =====================================================================
 Step     18 Time=  3.00000E-01 Dt=  5.00000E-02 [y] snes_conv_reason:   11
  newton =   2 [      22] linear =   243 [      2676] cuts =  0 [   0]
  --> max chng: dpmx=   2.4356E+01 dtmpmx=   1.2140E+00

== TH FLOW =====================================================================
 Step     19 Time=  3.50000E-01 Dt=  5.00000E-02 [y] snes_conv_reason:   11
  newton =   2 [      24] linear =   262 [      2938] cuts =  0 [   0]
  --> max chng: dpmx=   1.2149E+01 dtmpmx=   8.5342E-01

== TH FLOW =====================================================================
 Step     20 Time=  4.00000E-01 Dt=  5.00000E-02 [y] snes_conv_reason:   11
  newton =   2 [      26] linear =   260 [      3198] cuts =  0 [   0]
  --> max chng: dpmx=   7.4935E+00 dtmpmx=   6.2509E-01

== TH FLOW =====================================================================
 Step     21 Time=  4.50000E-01 Dt=  5.00000E-02 [y] snes_conv_reason:   11
  newton =   2 [      28] linear =   269 [      3467] cuts =  0 [   0]
  --> max chng: dpmx=   5.4097E+00 dtmpmx=   5.4886E-01

== TH FLOW =====================================================================
 Step     22 Time=  5.00000E-01 Dt=  5.00000E-02 [y] snes_conv_reason:    3
  newton =   1 [      29] linear =   135 [      3602] cuts =  0 [   0]
  --> max chng: dpmx=   4.2966E+00 dtmpmx=   4.5954E-01

== TH FLOW =====================================================================
 Step     23 Time=  5.50000E-01 Dt=  5.00000E-02 [y] snes_conv_reason:    3
  newton =   1 [      30] linear =   131 [      3733] cuts =  0 [   0]
  --> max chng: dpmx=   3.5385E+00 dtmpmx=   3.9206E-01

== TH FLOW =====================================================================
 Step     24 Time=  6.00000E-01 Dt=  5.00000E-02 [y] snes_conv_reason:    3
  newton =   1 [      31] linear =   133 [      3866] cuts =  0 [   0]
  --> max chng: dpmx=   3.0237E+00 dtmpmx=   3.6992E-01

== TH FLOW =====================================================================
 Step     25 Time=  6.50000E-01 Dt=  5.00000E-02 [y] snes_conv_reason:    3
  newton =   1 [      32] linear =   133 [      3999] cuts =  0 [   0]
  --> max chng: dpmx=   2.6376E+00 dtmpmx=   3.3976E-01

== TH FLOW =====================================================================
 Step     26 Time=  7.00000E-01 Dt=  5.00000E-02 [y] snes_conv_reason:    3
  newton =   1 [      33] linear =   134 [      4133] cuts =  0 [   0]
  --> max chng: dpmx=   2.3347E+00 dtmpmx=   3.0578E-01

== TH FLOW =====================================================================
 Step     27 Time=  7.50000E-01 Dt=  5.00000E-02 [y] snes_conv_reason:    3
  newton =   1 [      34] linear =   132 [      4265] cuts =  0 [   0]
  --> max chng: dpmx=   2.0951E+00 dtmpmx=   2.7728E-01

== TH FLOW =====================================================================
 Step     28 Time=  8.00000E-01 Dt=  5.00000E-02 [y] snes_conv_reason:    3
  newton =   1 [      35] linear =   131 [      4396] cuts =  0 [   0]
  --> max chng: dpmx=   1.8990E+00 dtmpmx=   2.6848E-01

== TH FLOW =====================================================================
 Step     29 Time=  8.50000E-01 Dt=  5.00000E-02 [y] snes_conv_reason:    3
  newton =   1 [      36] linear =   133 [      4529] cuts =  0 [   0]
  --> max chng: dpmx=   1.7331E+00 dtmpmx=   2.5588E-01

== TH FLOW =====================================================================
 Step     30 Time=  9.00000E-01 Dt=  5.00000E-02 [y] snes_conv_reason:    3
  newton =   1 [      37] linear =   134 [      4663] cuts =  0 [   0]
  --> max chng: dpmx=   1.5933E+00 dtmpmx=   2.4068E-01

== TH FLOW =====================================================================
 Step     31 Time=  9.50000E-01 Dt=  5.00000E-02 [y] snes_conv_reason:    3
  newton =   1 [      38] linear =   134 [      4797] cuts =  0 [   0]
  --> max chng: dpmx=   1.4728E+00 dtmpmx=   2.2392E-01

== TH FLOW =====================================================================
 Step     32 Time=  1.00000E+00 Dt=  5.00000E-02 [y] snes_conv_reason:    3
  newton =   1 [      39] linear =   135 [      4932] cuts =  0 [   0]
  --> max chng: dpmx=   1.3698E+00 dtmpmx=   2.1148E-01

== TH FLOW =====================================================================
 Step     33 Time=  1.05000E+00 Dt=  5.00000E-02 [y] snes_conv_reason:    3
  newton =   1 [      40] linear =   134 [      5066] cuts =  0 [   0]
  --> max chng: dpmx=   1.2796E+00 dtmpmx=   2.0684E-01

== TH FLOW =====================================================================
 Step     34 Time=  1.10000E+00 Dt=  5.00000E-02 [y] snes_conv_reason:    3
  newton =   1 [      41] linear =   136 [      5202] cuts =  0 [   0]
  --> max chng: dpmx=   1.1998E+00 dtmpmx=   2.0033E-01

== TH FLOW =====================================================================
 Step     35 Time=  1.15000E+00 Dt=  5.00000E-02 [y] snes_conv_reason:    3
  newton =   1 [      42] linear =   134 [      5336] cuts =  0 [   0]
  --> max chng: dpmx=   1.1281E+00 dtmpmx=   1.9236E-01

== TH FLOW =====================================================================
 Step     36 Time=  1.20000E+00 Dt=  5.00000E-02 [y] snes_conv_reason:    3
  newton =   1 [      43] linear =   135 [      5471] cuts =  0 [   0]
  --> max chng: dpmx=   1.0637E+00 dtmpmx=   1.8333E-01

== TH FLOW =====================================================================
 Step     37 Time=  1.25000E+00 Dt=  5.00000E-02 [y] snes_conv_reason:    3
  newton =   1 [      44] linear =   135 [      5606] cuts =  0 [   0]
  --> max chng: dpmx=   1.0057E+00 dtmpmx=   1.7358E-01

== TH FLOW =====================================================================
 Step     38 Time=  1.30000E+00 Dt=  5.00000E-02 [y] snes_conv_reason:   11
  newton =   1 [      45] linear =   133 [      5739] cuts =  0 [   0]
  --> max chng: dpmx=   9.5315E-01 dtmpmx=   1.6730E-01

== TH FLOW =====================================================================
 Step     39 Time=  1.35000E+00 Dt=  5.00000E-02 [y] snes_conv_reason:   11
  newton =   1 [      46] linear =   135 [      5874] cuts =  0 [   0]
  --> max chng: dpmx=   9.0530E-01 dtmpmx=   1.6463E-01

== TH FLOW =====================================================================
 Step     40 Time=  1.40000E+00 Dt=  5.00000E-02 [y] snes_conv_reason:   11
  newton =   1 [      47] linear =   135 [      6009] cuts =  0 [   0]
  --> max chng: dpmx=   8.6201E-01 dtmpmx=   1.6097E-01

== TH FLOW =====================================================================
 Step     41 Time=  1.45000E+00 Dt=  5.00000E-02 [y] snes_conv_reason:   11
  newton =   1 [      48] linear =   135 [      6144] cuts =  0 [   0]
  --> max chng: dpmx=   8.2198E-01 dtmpmx=   1.5649E-01

== TH FLOW =====================================================================
 Step     42 Time=  1.50000E+00 Dt=  5.00000E-02 [y] snes_conv_reason:   11
  newton =   1 [      49] linear =   134 [      6278] cuts =  0 [   0]
  --> max chng: dpmx=   7.9887E-01 dtmpmx=   1.5134E-01

== TH FLOW =====================================================================
 Step     43 Time=  1.55000E+00 Dt=  5.00000E-02 [y] snes_conv_reason:   11
  newton =   1 [      50] linear =   133 [      6411] cuts =  0 [   0]
  --> max chng: dpmx=   7.9333E-01 dtmpmx=   1.4567E-01

== TH FLOW =====================================================================
 Step     44 Time=  1.60000E+00 Dt=  5.00000E-02 [y] snes_conv_reason:   11
  newton =   1 [      51] linear =   133 [      6544] cuts =  0 [   0]
  --> max chng: dpmx=   7.9179E-01 dtmpmx=   1.3967E-01

== TH FLOW =====================================================================
 Step     45 Time=  1.65000E+00 Dt=  5.00000E-02 [y] snes_conv_reason:   11
  newton =   1 [      52] linear =   135 [      6679] cuts =  0 [   0]
  --> max chng: dpmx=   7.9103E-01 dtmpmx=   1.3690E-01

== TH FLOW =====================================================================
 Step     46 Time=  1.70000E+00 Dt=  5.00000E-02 [y] snes_conv_reason:   11
  newton =   1 [      53] linear =   136 [      6815] cuts =  0 [   0]
  --> max chng: dpmx=   7.8980E-01 dtmpmx=   1.3498E-01

== TH FLOW =====================================================================
 Step     47 Time=  1.75000E+00 Dt=  5.00000E-02 [y] snes_conv_reason:   11
  newton =   1 [      54] linear =   134 [      6949] cuts =  0 [   0]
  --> max chng: dpmx=   7.8645E-01 dtmpmx=   1.3272E-01

== TH FLOW =====================================================================
 Step     48 Time=  1.80000E+00 Dt=  5.00000E-02 [y] snes_conv_reason:   11
  newton =   1 [      55] linear =   135 [      7084] cuts =  0 [   0]
  --> max chng: dpmx=   7.8409E-01 dtmpmx=   1.2998E-01

== TH FLOW =====================================================================
 Step     49 Time=  1.85000E+00 Dt=  5.00000E-02 [y] snes_conv_reason:   11
  newton =   1 [      56] linear =   134 [      7218] cuts =  0 [   0]
  --> max chng: dpmx=   7.8001E-01 dtmpmx=   1.2682E-01

== TH FLOW =====================================================================
 Step     50 Time=  1.90000E+00 Dt=  5.00000E-02 [y] snes_conv_reason:   11
  newton =   1 [      57] linear =   135 [      7353] cuts =  0 [   0]
  --> max chng: dpmx=   7.7876E-01 dtmpmx=   1.2331E-01

== TH FLOW =====================================================================
 Step     51 Time=  1.95000E+00 Dt=  5.00000E-02 [y] snes_conv_reason:   11
  newton =   1 [      58] linear =   135 [      7488] cuts =  0 [   0]
  --> max chng: dpmx=   7.7872E-01 dtmpmx=   1.1952E-01

== TH FLOW =====================================================================
 Step     52 Time=  2.00000E+00 Dt=  5.00000E-02 [y] snes_conv_reason:   11
  newton =   1 [      59] linear =   115 [      7603] cuts =  0 [   0]
  --> max chng: dpmx=   7.7746E-01 dtmpmx=   1.1705E-01

== TH FLOW =====================================================================
 Step     53 Time=  2.05000E+00 Dt=  5.00000E-02 [y] snes_conv_reason:   11
  newton =   1 [      60] linear =   136 [      7739] cuts =  0 [   0]
  --> max chng: dpmx=   7.7604E-01 dtmpmx=   1.1576E-01

== TH FLOW =====================================================================
 Step     54 Time=  2.10000E+00 Dt=  5.00000E-02 [y] snes_conv_reason:   11
  newton =   1 [      61] linear =   135 [      7874] cuts =  0 [   0]
  --> max chng: dpmx=   7.7387E-01 dtmpmx=   1.1411E-01

== TH FLOW =====================================================================
 Step     55 Time=  2.15000E+00 Dt=  5.00000E-02 [y] snes_conv_reason:   11
  newton =   1 [      62] linear =   118 [      7992] cuts =  0 [   0]
  --> max chng: dpmx=   7.7138E-01 dtmpmx=   1.1214E-01

== TH FLOW =====================================================================
 Step     56 Time=  2.20000E+00 Dt=  5.00000E-02 [y] snes_conv_reason:   11
  newton =   1 [      63] linear =   118 [      8110] cuts =  0 [   0]
  --> max chng: dpmx=   7.6954E-01 dtmpmx=   1.1018E-01

== TH FLOW =====================================================================
 Step     57 Time=  2.25000E+00 Dt=  5.00000E-02 [y] snes_conv_reason:   11
  newton =   1 [      64] linear =   120 [      8230] cuts =  0 [   0]
  --> max chng: dpmx=   7.6963E-01 dtmpmx=   1.0807E-01

== TH FLOW =====================================================================
 Step     58 Time=  2.30000E+00 Dt=  5.00000E-02 [y] snes_conv_reason:   11
  newton =   1 [      65] linear =   123 [      8353] cuts =  0 [   0]
  --> max chng: dpmx=   7.6941E-01 dtmpmx=   1.0572E-01

== TH FLOW =====================================================================
 Step     59 Time=  2.35000E+00 Dt=  5.00000E-02 [y] snes_conv_reason:   11
  newton =   1 [      66] linear =   129 [      8482] cuts =  0 [   0]
  --> max chng: dpmx=   7.6838E-01 dtmpmx=   1.0319E-01

== TH FLOW =====================================================================
 Step     60 Time=  2.40000E+00 Dt=  5.00000E-02 [y] snes_conv_reason:   11
  newton =   1 [      67] linear =   129 [      8611] cuts =  0 [   0]
  --> max chng: dpmx=   7.6692E-01 dtmpmx=   1.0148E-01

== TH FLOW =====================================================================
 Step     61 Time=  2.45000E+00 Dt=  5.00000E-02 [y] snes_conv_reason:   11
  newton =   1 [      68] linear =   135 [      8746] cuts =  0 [   0]
  --> max chng: dpmx=   7.6590E-01 dtmpmx=   1.0054E-01

== TH FLOW =====================================================================
 Step     62 Time=  2.50000E+00 Dt=  5.00000E-02 [y] snes_conv_reason:   11
  newton =   1 [      69] linear =   138 [      8884] cuts =  0 [   0]
  --> max chng: dpmx=   7.6322E-01 dtmpmx=   9.9365E-02

== TH FLOW =====================================================================
 Step     63 Time=  2.55000E+00 Dt=  5.00000E-02 [y] snes_conv_reason:   11
  newton =   1 [      70] linear =   135 [      9019] cuts =  0 [   0]
  --> max chng: dpmx=   7.6319E-01 dtmpmx=   9.7972E-02

== TH FLOW =====================================================================
 Step     64 Time=  2.60000E+00 Dt=  5.00000E-02 [y] snes_conv_reason:   11
  newton =   1 [      71] linear =   132 [      9151] cuts =  0 [   0]
  --> max chng: dpmx=   7.6299E-01 dtmpmx=   9.6467E-02

== TH FLOW =====================================================================
 Step     65 Time=  2.65000E+00 Dt=  5.00000E-02 [y] snes_conv_reason:   11
  newton =   1 [      72] linear =   136 [      9287] cuts =  0 [   0]
  --> max chng: dpmx=   7.6309E-01 dtmpmx=   9.5089E-02

== TH FLOW =====================================================================
 Step     66 Time=  2.70000E+00 Dt=  5.00000E-02 [y] snes_conv_reason:   11
  newton =   1 [      73] linear =   137 [      9424] cuts =  0 [   0]
  --> max chng: dpmx=   7.6227E-01 dtmpmx=   9.3540E-02

== TH FLOW =====================================================================
 Step     67 Time=  2.75000E+00 Dt=  5.00000E-02 [y] snes_conv_reason:   11
  newton =   1 [      74] linear =   137 [      9561] cuts =  0 [   0]
  --> max chng: dpmx=   7.6136E-01 dtmpmx=   9.1840E-02

== TH FLOW =====================================================================
 Step     68 Time=  2.80000E+00 Dt=  5.00000E-02 [y] snes_conv_reason:   11
  newton =   1 [      75] linear =   137 [      9698] cuts =  0 [   0]
  --> max chng: dpmx=   7.6003E-01 dtmpmx=   9.0005E-02

== TH FLOW =====================================================================
 Step     69 Time=  2.85000E+00 Dt=  5.00000E-02 [y] snes_conv_reason:   11
  newton =   1 [      76] linear =   137 [      9835] cuts =  0 [   0]
  --> max chng: dpmx=   7.5833E-01 dtmpmx=   8.9189E-02

== TH FLOW =====================================================================
 Step     70 Time=  2.90000E+00 Dt=  5.00000E-02 [y] snes_conv_reason:   11
  newton =   1 [      77] linear =   136 [      9971] cuts =  0 [   0]
  --> max chng: dpmx=   7.5859E-01 dtmpmx=   8.8411E-02

== TH FLOW =====================================================================
 Step     71 Time=  2.95000E+00 Dt=  5.00000E-02 [y] snes_conv_reason:   11
  newton =   1 [      78] linear =   138 [     10109] cuts =  0 [   0]
  --> max chng: dpmx=   7.5857E-01 dtmpmx=   8.7475E-02

== TH FLOW =====================================================================
 Step     72 Time=  3.00000E+00 Dt=  5.00000E-02 [y] snes_conv_reason:   11
  newton =   1 [      79] linear =   137 [     10246] cuts =  0 [   0]
  --> max chng: dpmx=   7.5872E-01 dtmpmx=   8.6392E-02

== TH FLOW =====================================================================
 Step     73 Time=  3.05000E+00 Dt=  5.00000E-02 [y] snes_conv_reason:   11
  newton =   1 [      80] linear =   137 [     10383] cuts =  0 [   0]
  --> max chng: dpmx=   7.5807E-01 dtmpmx=   8.5384E-02

== TH FLOW =====================================================================
 Step     74 Time=  3.10000E+00 Dt=  5.00000E-02 [y] snes_conv_reason:   11
  newton =   1 [      81] linear =   138 [     10521] cuts =  0 [   0]
  --> max chng: dpmx=   7.5773E-01 dtmpmx=   8.4385E-02

== TH FLOW =====================================================================
 Step     75 Time=  3.15000E+00 Dt=  5.00000E-02 [y] snes_conv_reason:   11
  newton =   1 [      82] linear =   139 [     10660] cuts =  0 [   0]
  --> max chng: dpmx=   7.5625E-01 dtmpmx=   8.3263E-02

== TH FLOW =====================================================================
 Step     76 Time=  3.20000E+00 Dt=  5.00000E-02 [y] snes_conv_reason:   11
  newton =   1 [      83] linear =   141 [     10801] cuts =  0 [   0]
  --> max chng: dpmx=   7.5523E-01 dtmpmx=   8.2027E-02

== TH FLOW =====================================================================
 Step     77 Time=  3.25000E+00 Dt=  5.00000E-02 [y] snes_conv_reason:   11
  newton =   1 [      84] linear =   132 [     10933] cuts =  0 [   0]
  --> max chng: dpmx=   7.5548E-01 dtmpmx=   8.0690E-02

== TH FLOW =====================================================================
 Step     78 Time=  3.30000E+00 Dt=  5.00000E-02 [y] snes_conv_reason:   11
  newton =   1 [      85] linear =   133 [     11066] cuts =  0 [   0]
  --> max chng: dpmx=   7.5582E-01 dtmpmx=   7.9865E-02

== TH FLOW =====================================================================
 Step     79 Time=  3.35000E+00 Dt=  5.00000E-02 [y] snes_conv_reason:   11
  newton =   1 [      86] linear =   133 [     11199] cuts =  0 [   0]
  --> max chng: dpmx=   7.5550E-01 dtmpmx=   7.9275E-02

== TH FLOW =====================================================================
 Step     80 Time=  3.40000E+00 Dt=  5.00000E-02 [y] snes_conv_reason:   11
  newton =   1 [      87] linear =   134 [     11333] cuts =  0 [   0]
  --> max chng: dpmx=   7.5577E-01 dtmpmx=   7.8569E-02

== TH FLOW =====================================================================
 Step     81 Time=  3.45000E+00 Dt=  5.00000E-02 [y] snes_conv_reason:   11
  newton =   1 [      88] linear =   134 [     11467] cuts =  0 [   0]
  --> max chng: dpmx=   7.5501E-01 dtmpmx=   7.7755E-02

== TH FLOW =====================================================================
 Step     82 Time=  3.50000E+00 Dt=  5.00000E-02 [y] snes_conv_reason:   11
  newton =   1 [      89] linear =   133 [     11600] cuts =  0 [   0]
  --> max chng: dpmx=   7.5443E-01 dtmpmx=   7.7074E-02

== TH FLOW =====================================================================
 Step     83 Time=  3.55000E+00 Dt=  5.00000E-02 [y] snes_conv_reason:   11
  newton =   1 [      90] linear =   134 [     11734] cuts =  0 [   0]
  --> max chng: dpmx=   7.5317E-01 dtmpmx=   7.6361E-02

== TH FLOW =====================================================================
 Step     84 Time=  3.60000E+00 Dt=  5.00000E-02 [y] snes_conv_reason:   11
  newton =   1 [      91] linear =   136 [     11870] cuts =  0 [   0]
  --> max chng: dpmx=   7.5329E-01 dtmpmx=   7.5553E-02

== TH FLOW =====================================================================
 Step     85 Time=  3.65000E+00 Dt=  5.00000E-02 [y] snes_conv_reason:   11
  newton =   1 [      92] linear =   135 [     12005] cuts =  0 [   0]
  --> max chng: dpmx=   7.5369E-01 dtmpmx=   7.4655E-02

== TH FLOW =====================================================================
 Step     86 Time=  3.70000E+00 Dt=  5.00000E-02 [y] snes_conv_reason:   11
  newton =   1 [      93] linear =   131 [     12136] cuts =  0 [   0]
  --> max chng: dpmx=   7.5359E-01 dtmpmx=   7.3675E-02

== TH FLOW =====================================================================
 Step     87 Time=  3.75000E+00 Dt=  5.00000E-02 [y] snes_conv_reason:   11
  newton =   1 [      94] linear =   135 [     12271] cuts =  0 [   0]
  --> max chng: dpmx=   7.5367E-01 dtmpmx=   7.2723E-02

== TH FLOW =====================================================================
 Step     88 Time=  3.80000E+00 Dt=  5.00000E-02 [y] snes_conv_reason:   11
  newton =   1 [      95] linear =   134 [     12405] cuts =  0 [   0]
  --> max chng: dpmx=   7.5379E-01 dtmpmx=   7.2161E-02

== TH FLOW =====================================================================
 Step     89 Time=  3.85000E+00 Dt=  5.00000E-02 [y] snes_conv_reason:   11
  newton =   1 [      96] linear =   134 [     12539] cuts =  0 [   0]
  --> max chng: dpmx=   7.5283E-01 dtmpmx=   7.1645E-02

== TH FLOW =====================================================================
 Step     90 Time=  3.90000E+00 Dt=  5.00000E-02 [y] snes_conv_reason:   11
  newton =   1 [      97] linear =   132 [     12671] cuts =  0 [   0]
  --> max chng: dpmx=   7.5219E-01 dtmpmx=   7.1045E-02

== TH FLOW =====================================================================
 Step     91 Time=  3.95000E+00 Dt=  5.00000E-02 [y] snes_conv_reason:   11
  newton =   1 [      98] linear =   135 [     12806] cuts =  0 [   0]
  --> max chng: dpmx=   7.5203E-01 dtmpmx=   7.0562E-02

== TH FLOW =====================================================================
 Step     92 Time=  4.00000E+00 Dt=  5.00000E-02 [y] snes_conv_reason:   11
  newton =   1 [      99] linear =   138 [     12944] cuts =  0 [   0]
  --> max chng: dpmx=   7.5223E-01 dtmpmx=   7.0064E-02

== TH FLOW =====================================================================
 Step     93 Time=  4.05000E+00 Dt=  5.00000E-02 [y] snes_conv_reason:   11
  newton =   1 [     100] linear =   135 [     13079] cuts =  0 [   0]
  --> max chng: dpmx=   7.5273E-01 dtmpmx=   6.9488E-02

== TH FLOW =====================================================================
 Step     94 Time=  4.10000E+00 Dt=  5.00000E-02 [y] snes_conv_reason:   11
  newton =   1 [     101] linear =   132 [     13211] cuts =  0 [   0]
  --> max chng: dpmx=   7.5255E-01 dtmpmx=   6.8839E-02

== TH FLOW =====================================================================
 Step     95 Time=  4.15000E+00 Dt=  5.00000E-02 [y] snes_conv_reason:   11
  newton =   1 [     102] linear =   136 [     13347] cuts =  0 [   0]
  --> max chng: dpmx=   7.5234E-01 dtmpmx=   6.8122E-02

== TH FLOW =====================================================================
 Step     96 Time=  4.20000E+00 Dt=  5.00000E-02 [y] snes_conv_reason:   11
  newton =   1 [     103] linear =   135 [     13482] cuts =  0 [   0]
  --> max chng: dpmx=   7.5223E-01 dtmpmx=   6.7340E-02

== TH FLOW =====================================================================
 Step     97 Time=  4.25000E+00 Dt=  5.00000E-02 [y] snes_conv_reason:   11
  newton =   1 [     104] linear =   135 [     13617] cuts =  0 [   0]
  --> max chng: dpmx=   7.5145E-01 dtmpmx=   6.6754E-02

== TH FLOW =====================================================================
 Step     98 Time=  4.30000E+00 Dt=  5.00000E-02 [y] snes_conv_reason:   11
  newton =   1 [     105] linear =   140 [     13757] cuts =  0 [   0]
  --> max chng: dpmx=   7.5108E-01 dtmpmx=   6.6273E-02

== TH FLOW =====================================================================
 Step     99 Time=  4.35000E+00 Dt=  5.00000E-02 [y] snes_conv_reason:   11
  newton =   1 [     106] linear =   136 [     13893] cuts =  0 [   0]
  --> max chng: dpmx=   7.5162E-01 dtmpmx=   6.5727E-02

== TH FLOW =====================================================================
 Step    100 Time=  4.40000E+00 Dt=  5.00000E-02 [y] snes_conv_reason:   11
  newton =   1 [     107] linear =   136 [     14029] cuts =  0 [   0]
  --> max chng: dpmx=   7.5170E-01 dtmpmx=   6.5275E-02

== TH FLOW =====================================================================
 Step    101 Time=  4.45000E+00 Dt=  5.00000E-02 [y] snes_conv_reason:   11
  newton =   1 [     108] linear =   135 [     14164] cuts =  0 [   0]
  --> max chng: dpmx=   7.5204E-01 dtmpmx=   6.4939E-02

== TH FLOW =====================================================================
 Step    102 Time=  4.50000E+00 Dt=  5.00000E-02 [y] snes_conv_reason:   11
  newton =   1 [     109] linear =   136 [     14300] cuts =  0 [   0]
  --> max chng: dpmx=   7.5175E-01 dtmpmx=   6.4539E-02

== TH FLOW =====================================================================
 Step    103 Time=  4.55000E+00 Dt=  5.00000E-02 [y] snes_conv_reason:   11
  newton =   1 [     110] linear =   133 [     14433] cuts =  0 [   0]
  --> max chng: dpmx=   7.5179E-01 dtmpmx=   6.4076E-02

== TH FLOW =====================================================================
 Step    104 Time=  4.60000E+00 Dt=  5.00000E-02 [y] snes_conv_reason:   11
  newton =   1 [     111] linear =   134 [     14567] cuts =  0 [   0]
  --> max chng: dpmx=   7.5144E-01 dtmpmx=   6.3555E-02

== TH FLOW =====================================================================
 Step    105 Time=  4.65000E+00 Dt=  5.00000E-02 [y] snes_conv_reason:   11
  newton =   1 [     112] linear =   133 [     14700] cuts =  0 [   0]
  --> max chng: dpmx=   7.5074E-01 dtmpmx=   6.2979E-02

== TH FLOW =====================================================================
 Step    106 Time=  4.70000E+00 Dt=  5.00000E-02 [y] snes_conv_reason:   11
  newton =   1 [     113] linear =   136 [     14836] cuts =  0 [   0]
  --> max chng: dpmx=   7.5089E-01 dtmpmx=   6.2352E-02

== TH FLOW =====================================================================
 Step    107 Time=  4.75000E+00 Dt=  5.00000E-02 [y] snes_conv_reason:   11
  newton =   1 [     114] linear =   135 [     14971] cuts =  0 [   0]
  --> max chng: dpmx=   7.5147E-01 dtmpmx=   6.1969E-02

== TH FLOW =====================================================================
 Step    108 Time=  4.80000E+00 Dt=  5.00000E-02 [y] snes_conv_reason:   11
  newton =   1 [     115] linear =   134 [     15105] cuts =  0 [   0]
  --> max chng: dpmx=   7.5147E-01 dtmpmx=   6.1593E-02

== TH FLOW =====================================================================
 Step    109 Time=  4.85000E+00 Dt=  5.00000E-02 [y] snes_conv_reason:   11
  newton =   1 [     116] linear =   136 [     15241] cuts =  0 [   0]
  --> max chng: dpmx=   7.5169E-01 dtmpmx=   6.1165E-02

== TH FLOW =====================================================================
 Step    110 Time=  4.90000E+00 Dt=  5.00000E-02 [y] snes_conv_reason:   11
  newton =   1 [     117] linear =   136 [     15377] cuts =  0 [   0]
  --> max chng: dpmx=   7.5150E-01 dtmpmx=   6.0686E-02

== TH FLOW =====================================================================
 Step    111 Time=  4.95000E+00 Dt=  5.00000E-02 [y] snes_conv_reason:   11
  newton =   1 [     118] linear =   133 [     15510] cuts =  0 [   0]
  --> max chng: dpmx=   7.5136E-01 dtmpmx=   6.0382E-02

== TH FLOW =====================================================================
 Step    112 Time=  5.00000E+00 Dt=  5.00000E-02 [y] snes_conv_reason:   11
  newton =   1 [     119] linear =   134 [     15644] cuts =  0 [   0]
  --> max chng: dpmx=   7.5107E-01 dtmpmx=   6.0062E-02

== TH FLOW =====================================================================
 Step    113 Time=  5.05000E+00 Dt=  5.00000E-02 [y] snes_conv_reason:   11
  newton =   1 [     120] linear =   131 [     15775] cuts =  0 [   0]
  --> max chng: dpmx=   7.5028E-01 dtmpmx=   5.9691E-02

== TH FLOW =====================================================================
 Step    114 Time=  5.10000E+00 Dt=  5.00000E-02 [y] snes_conv_reason:   11
  newton =   1 [     121] linear =   135 [     15910] cuts =  0 [   0]
  --> max chng: dpmx=   7.5115E-01 dtmpmx=   5.9272E-02

== TH FLOW =====================================================================
 Step    115 Time=  5.15000E+00 Dt=  5.00000E-02 [y] snes_conv_reason:   11
  newton =   1 [     122] linear =   134 [     16044] cuts =  0 [   0]
  --> max chng: dpmx=   7.5119E-01 dtmpmx=   5.8808E-02

== TH FLOW =====================================================================
 Step    116 Time=  5.20000E+00 Dt=  5.00000E-02 [y] snes_conv_reason:   11
  newton =   1 [     123] linear =   135 [     16179] cuts =  0 [   0]
  --> max chng: dpmx=   7.5151E-01 dtmpmx=   5.8299E-02

== TH FLOW =====================================================================
 Step    117 Time=  5.25000E+00 Dt=  5.00000E-02 [y] snes_conv_reason:   11
  newton =   1 [     124] linear =   134 [     16313] cuts =  0 [   0]
  --> max chng: dpmx=   7.5154E-01 dtmpmx=   5.8028E-02

== TH FLOW =====================================================================
 Step    118 Time=  5.30000E+00 Dt=  5.00000E-02 [y] snes_conv_reason:   11
  newton =   1 [     125] linear =   133 [     16446] cuts =  0 [   0]
  --> max chng: dpmx=   7.5142E-01 dtmpmx=   5.7736E-02

== TH FLOW =====================================================================
 Step    119 Time=  5.35000E+00 Dt=  5.00000E-02 [y] snes_conv_reason:   11
  newton =   1 [     126] linear =   135 [     16581] cuts =  0 [   0]
  --> max chng: dpmx=   7.5118E-01 dtmpmx=   5.7399E-02

== TH FLOW =====================================================================
 Step    120 Time=  5.40000E+00 Dt=  5.00000E-02 [y] snes_conv_reason:   11
  newton =   1 [     127] linear =   133 [     16714] cuts =  0 [   0]
  --> max chng: dpmx=   7.5102E-01 dtmpmx=   5.7019E-02

== TH FLOW =====================================================================
 Step    121 Time=  5.45000E+00 Dt=  5.00000E-02 [y] snes_conv_reason:   11
  newton =   1 [     128] linear =   134 [     16848] cuts =  0 [   0]
  --> max chng: dpmx=   7.5077E-01 dtmpmx=   5.6603E-02

== TH FLOW =====================================================================
 Step    122 Time=  5.50000E+00 Dt=  5.00000E-02 [y] snes_conv_reason:   11
  newton =   1 [     129] linear =   135 [     16983] cuts =  0 [   0]
  --> max chng: dpmx=   7.5112E-01 dtmpmx=   5.6349E-02

== TH FLOW =====================================================================
 Step    123 Time=  5.55000E+00 Dt=  5.00000E-02 [y] snes_conv_reason:   11
  newton =   1 [     130] linear =   133 [     17116] cuts =  0 [   0]
  --> max chng: dpmx=   7.5125E-01 dtmpmx=   5.6052E-02

== TH FLOW =====================================================================
 Step    124 Time=  5.60000E+00 Dt=  5.00000E-02 [y] snes_conv_reason:   11
  newton =   1 [     131] linear =   137 [     17253] cuts =  0 [   0]
  --> max chng: dpmx=   7.5159E-01 dtmpmx=   5.5715E-02

== TH FLOW =====================================================================
 Step    125 Time=  5.65000E+00 Dt=  5.00000E-02 [y] snes_conv_reason:   11
  newton =   1 [     132] linear =   136 [     17389] cuts =  0 [   0]
  --> max chng: dpmx=   7.5157E-01 dtmpmx=   5.5338E-02

== TH FLOW =====================================================================
 Step    126 Time=  5.70000E+00 Dt=  5.00000E-02 [y] snes_conv_reason:   11
  newton =   1 [     133] linear =   135 [     17524] cuts =  0 [   0]
  --> max chng: dpmx=   7.5155E-01 dtmpmx=   5.4925E-02

== TH FLOW =====================================================================
 Step    127 Time=  5.75000E+00 Dt=  5.00000E-02 [y] snes_conv_reason:   11
  newton =   1 [     134] linear =   135 [     17659] cuts =  0 [   0]
  --> max chng: dpmx=   7.5127E-01 dtmpmx=   5.4713E-02

== TH FLOW =====================================================================
 Step    128 Time=  5.80000E+00 Dt=  5.00000E-02 [y] snes_conv_reason:   11
  newton =   1 [     135] linear =   132 [     17791] cuts =  0 [   0]
  --> max chng: dpmx=   7.5076E-01 dtmpmx=   5.4486E-02

== TH FLOW =====================================================================
 Step    129 Time=  5.85000E+00 Dt=  5.00000E-02 [y] snes_conv_reason:   11
  newton =   1 [     136] linear =   137 [     17928] cuts =  0 [   0]
  --> max chng: dpmx=   7.5124E-01 dtmpmx=   5.4222E-02

== TH FLOW =====================================================================
 Step    130 Time=  5.90000E+00 Dt=  5.00000E-02 [y] snes_conv_reason:   11
  newton =   1 [     137] linear =   132 [     18060] cuts =  0 [   0]
  --> max chng: dpmx=   7.5125E-01 dtmpmx=   5.3920E-02

== TH FLOW =====================================================================
 Step    131 Time=  5.95000E+00 Dt=  5.00000E-02 [y] snes_conv_reason:   11
  newton =   1 [     138] linear =   135 [     18195] cuts =  0 [   0]
  --> max chng: dpmx=   7.5153E-01 dtmpmx=   5.3583E-02

== TH FLOW =====================================================================
 Step    132 Time=  6.00000E+00 Dt=  5.00000E-02 [y] snes_conv_reason:   11
  newton =   1 [     139] linear =   137 [     18332] cuts =  0 [   0]
  --> max chng: dpmx=   7.5170E-01 dtmpmx=   5.3211E-02

== TH FLOW =====================================================================
 Step    133 Time=  6.05000E+00 Dt=  5.00000E-02 [y] snes_conv_reason:   11
  newton =   1 [     140] linear =   136 [     18468] cuts =  0 [   0]
  --> max chng: dpmx=   7.5154E-01 dtmpmx=   5.2972E-02

== TH FLOW =====================================================================
 Step    134 Time=  6.10000E+00 Dt=  5.00000E-02 [y] snes_conv_reason:   11
  newton =   1 [     141] linear =   136 [     18604] cuts =  0 [   0]
  --> max chng: dpmx=   7.5143E-01 dtmpmx=   5.2700E-02

== TH FLOW =====================================================================
 Step    135 Time=  6.15000E+00 Dt=  5.00000E-02 [y] snes_conv_reason:   11
  newton =   1 [     142] linear =   137 [     18741] cuts =  0 [   0]
  --> max chng: dpmx=   7.5139E-01 dtmpmx=   5.2394E-02

== TH FLOW =====================================================================
 Step    136 Time=  6.20000E+00 Dt=  5.00000E-02 [y] snes_conv_reason:   11
  newton =   1 [     143] linear =   137 [     18878] cuts =  0 [   0]
  --> max chng: dpmx=   7.5126E-01 dtmpmx=   5.2056E-02

== TH FLOW =====================================================================
 Step    137 Time=  6.25000E+00 Dt=  5.00000E-02 [y] snes_conv_reason:   11
  newton =   1 [     144] linear =   135 [     19013] cuts =  0 [   0]
  --> max chng: dpmx=   7.5091E-01 dtmpmx=   5.1873E-02

== TH FLOW =====================================================================
 Step    138 Time=  6.30000E+00 Dt=  5.00000E-02 [y] snes_conv_reason:   11
  newton =   1 [     145] linear =   136 [     19149] cuts =  0 [   0]
  --> max chng: dpmx=   7.5169E-01 dtmpmx=   5.1699E-02

== TH FLOW =====================================================================
 Step    139 Time=  6.35000E+00 Dt=  5.00000E-02 [y] snes_conv_reason:   11
  newton =   1 [     146] linear =   136 [     19285] cuts =  0 [   0]
  --> max chng: dpmx=   7.5187E-01 dtmpmx=   5.1492E-02

== TH FLOW =====================================================================
 Step    140 Time=  6.40000E+00 Dt=  5.00000E-02 [y] snes_conv_reason:   11
  newton =   1 [     147] linear =   137 [     19422] cuts =  0 [   0]
  --> max chng: dpmx=   7.5181E-01 dtmpmx=   5.1252E-02

== TH FLOW =====================================================================
 Step    141 Time=  6.45000E+00 Dt=  5.00000E-02 [y] snes_conv_reason:   11
  newton =   1 [     148] linear =   137 [     19559] cuts =  0 [   0]
  --> max chng: dpmx=   7.5170E-01 dtmpmx=   5.0981E-02

== TH FLOW =====================================================================
 Step    142 Time=  6.50000E+00 Dt=  5.00000E-02 [y] snes_conv_reason:   11
  newton =   1 [     149] linear =   137 [     19696] cuts =  0 [   0]
  --> max chng: dpmx=   7.5168E-01 dtmpmx=   5.0680E-02

== TH FLOW =====================================================================
 Step    143 Time=  6.55000E+00 Dt=  5.00000E-02 [y] snes_conv_reason:   11
  newton =   1 [     150] linear =   136 [     19832] cuts =  0 [   0]
  --> max chng: dpmx=   7.5146E-01 dtmpmx=   5.0350E-02

== TH FLOW =====================================================================
 Step    144 Time=  6.60000E+00 Dt=  5.00000E-02 [y] snes_conv_reason:   11
  newton =   1 [     151] linear =   138 [     19970] cuts =  0 [   0]
  --> max chng: dpmx=   7.5118E-01 dtmpmx=   5.0102E-02

== TH FLOW =====================================================================
 Step    145 Time=  6.65000E+00 Dt=  5.00000E-02 [y] snes_conv_reason:   11
  newton =   1 [     152] linear =   137 [     20107] cuts =  0 [   0]
  --> max chng: dpmx=   7.5145E-01 dtmpmx=   4.9854E-02

== TH FLOW =====================================================================
 Step    146 Time=  6.70000E+00 Dt=  5.00000E-02 [y] snes_conv_reason:   11
  newton =   1 [     153] linear =   136 [     20243] cuts =  0 [   0]
  --> max chng: dpmx=   7.5168E-01 dtmpmx=   4.9577E-02

== TH FLOW =====================================================================
 Step    147 Time=  6.75000E+00 Dt=  5.00000E-02 [y] snes_conv_reason:   11
  newton =   1 [     154] linear =   134 [     20377] cuts =  0 [   0]
  --> max chng: dpmx=   7.5135E-01 dtmpmx=   4.9424E-02

== TH FLOW =====================================================================
 Step    148 Time=  6.80000E+00 Dt=  5.00000E-02 [y] snes_conv_reason:   11
  newton =   1 [     155] linear =   139 [     20516] cuts =  0 [   0]
  --> max chng: dpmx=   7.5204E-01 dtmpmx=   4.9274E-02

== TH FLOW =====================================================================
 Step    149 Time=  6.85000E+00 Dt=  5.00000E-02 [y] snes_conv_reason:   11
  newton =   1 [     156] linear =   138 [     20654] cuts =  0 [   0]
  --> max chng: dpmx=   7.5198E-01 dtmpmx=   4.9113E-02

== TH FLOW =====================================================================
 Step    150 Time=  6.90000E+00 Dt=  5.00000E-02 [y] snes_conv_reason:   11
  newton =   1 [     157] linear =   137 [     20791] cuts =  0 [   0]
  --> max chng: dpmx=   7.5188E-01 dtmpmx=   4.8923E-02

== TH FLOW =====================================================================
 Step    151 Time=  6.95000E+00 Dt=  5.00000E-02 [y] snes_conv_reason:   11
  newton =   1 [     158] linear =   137 [     20928] cuts =  0 [   0]
  --> max chng: dpmx=   7.5149E-01 dtmpmx=   4.8706E-02

== TH FLOW =====================================================================
 Step    152 Time=  7.00000E+00 Dt=  5.00000E-02 [y] snes_conv_reason:   11
  newton =   1 [     159] linear =   136 [     21064] cuts =  0 [   0]
  --> max chng: dpmx=   7.5139E-01 dtmpmx=   4.8461E-02

== TH FLOW =====================================================================
 Step    153 Time=  7.05000E+00 Dt=  5.00000E-02 [y] snes_conv_reason:   11
  newton =   1 [     160] linear =   135 [     21199] cuts =  0 [   0]
  --> max chng: dpmx=   7.5127E-01 dtmpmx=   4.8191E-02

== TH FLOW =====================================================================
 Step    154 Time=  7.10000E+00 Dt=  5.00000E-02 [y] snes_conv_reason:   11
  newton =   1 [     161] linear =   137 [     21336] cuts =  0 [   0]
  --> max chng: dpmx=   7.5173E-01 dtmpmx=   4.7896E-02

== TH FLOW =====================================================================
 Step    155 Time=  7.15000E+00 Dt=  5.00000E-02 [y] snes_conv_reason:   11
  newton =   1 [     162] linear =   140 [     21476] cuts =  0 [   0]
  --> max chng: dpmx=   7.5188E-01 dtmpmx=   4.7631E-02

== TH FLOW =====================================================================
 Step    156 Time=  7.20000E+00 Dt=  5.00000E-02 [y] snes_conv_reason:   11
  newton =   1 [     163] linear =   136 [     21612] cuts =  0 [   0]
  --> max chng: dpmx=   7.5199E-01 dtmpmx=   4.7408E-02

== TH FLOW =====================================================================
 Step    157 Time=  7.25000E+00 Dt=  5.00000E-02 [y] snes_conv_reason:   11
  newton =   1 [     164] linear =   136 [     21748] cuts =  0 [   0]
  --> max chng: dpmx=   7.5183E-01 dtmpmx=   4.7302E-02

== TH FLOW =====================================================================
 Step    158 Time=  7.30000E+00 Dt=  5.00000E-02 [y] snes_conv_reason:   11
  newton =   1 [     165] linear =   138 [     21886] cuts =  0 [   0]
  --> max chng: dpmx=   7.5184E-01 dtmpmx=   4.7169E-02

== TH FLOW =====================================================================
 Step    159 Time=  7.35000E+00 Dt=  5.00000E-02 [y] snes_conv_reason:   11
  newton =   1 [     166] linear =   135 [     22021] cuts =  0 [   0]
  --> max chng: dpmx=   7.5152E-01 dtmpmx=   4.7013E-02

== TH FLOW =====================================================================
 Step    160 Time=  7.40000E+00 Dt=  5.00000E-02 [y] snes_conv_reason:   11
  newton =   1 [     167] linear =   134 [     22155] cuts =  0 [   0]
  --> max chng: dpmx=   7.5125E-01 dtmpmx=   4.6865E-02

== TH FLOW =====================================================================
 Step    161 Time=  7.45000E+00 Dt=  5.00000E-02 [y] snes_conv_reason:   11
  newton =   1 [     168] linear =   138 [     22293] cuts =  0 [   0]
  --> max chng: dpmx=   7.5160E-01 dtmpmx=   4.6691E-02

== TH FLOW =====================================================================
 Step    162 Time=  7.50000E+00 Dt=  5.00000E-02 [y] snes_conv_reason:   11
  newton =   1 [     169] linear =   135 [     22428] cuts =  0 [   0]
  --> max chng: dpmx=   7.5168E-01 dtmpmx=   4.6493E-02

== TH FLOW =====================================================================
 Step    163 Time=  7.55000E+00 Dt=  5.00000E-02 [y] snes_conv_reason:   11
  newton =   1 [     170] linear =   134 [     22562] cuts =  0 [   0]
  --> max chng: dpmx=   7.5181E-01 dtmpmx=   4.6272E-02

== TH FLOW =====================================================================
 Step    164 Time=  7.60000E+00 Dt=  5.00000E-02 [y] snes_conv_reason:   11
  newton =   1 [     171] linear =   133 [     22695] cuts =  0 [   0]
  --> max chng: dpmx=   7.5176E-01 dtmpmx=   4.6027E-02

== TH FLOW =====================================================================
 Step    165 Time=  7.65000E+00 Dt=  5.00000E-02 [y] snes_conv_reason:   11
  newton =   1 [     172] linear =   131 [     22826] cuts =  0 [   0]
  --> max chng: dpmx=   7.5193E-01 dtmpmx=   4.5761E-02

== TH FLOW =====================================================================
 Step    166 Time=  7.70000E+00 Dt=  5.00000E-02 [y] snes_conv_reason:   11
  newton =   1 [     173] linear =   130 [     22956] cuts =  0 [   0]
  --> max chng: dpmx=   7.5166E-01 dtmpmx=   4.5483E-02

== TH FLOW =====================================================================
 Step    167 Time=  7.75000E+00 Dt=  5.00000E-02 [y] snes_conv_reason:   11
  newton =   1 [     174] linear =   129 [     23085] cuts =  0 [   0]
  --> max chng: dpmx=   7.5162E-01 dtmpmx=   4.5407E-02

== TH FLOW =====================================================================
 Step    168 Time=  7.80000E+00 Dt=  5.00000E-02 [y] snes_conv_reason:   11
  newton =   1 [     175] linear =   129 [     23214] cuts =  0 [   0]
  --> max chng: dpmx=   7.5122E-01 dtmpmx=   4.5308E-02

== TH FLOW =====================================================================
 Step    169 Time=  7.85000E+00 Dt=  5.00000E-02 [y] snes_conv_reason:   11
  newton =   1 [     176] linear =   130 [     23344] cuts =  0 [   0]
  --> max chng: dpmx=   7.5130E-01 dtmpmx=   4.5185E-02

== TH FLOW =====================================================================
 Step    170 Time=  7.90000E+00 Dt=  5.00000E-02 [y] snes_conv_reason:   11
  newton =   1 [     177] linear =   129 [     23473] cuts =  0 [   0]
  --> max chng: dpmx=   7.5158E-01 dtmpmx=   4.5040E-02

== TH FLOW =====================================================================
 Step    171 Time=  7.95000E+00 Dt=  5.00000E-02 [y] snes_conv_reason:   11
  newton =   1 [     178] linear =   129 [     23602] cuts =  0 [   0]
  --> max chng: dpmx=   7.5155E-01 dtmpmx=   4.4889E-02

== TH FLOW =====================================================================
 Step    172 Time=  8.00000E+00 Dt=  5.00000E-02 [y] snes_conv_reason:   11
  newton =   1 [     179] linear =   128 [     23730] cuts =  0 [   0]
  --> max chng: dpmx=   7.5167E-01 dtmpmx=   4.4729E-02

== TH FLOW =====================================================================
 Step    173 Time=  8.05000E+00 Dt=  5.00000E-02 [y] snes_conv_reason:   11
  newton =   1 [     180] linear =   129 [     23859] cuts =  0 [   0]
  --> max chng: dpmx=   7.5174E-01 dtmpmx=   4.4548E-02

== TH FLOW =====================================================================
 Step    174 Time=  8.10000E+00 Dt=  5.00000E-02 [y] snes_conv_reason:   11
  newton =   1 [     181] linear =   128 [     23987] cuts =  0 [   0]
  --> max chng: dpmx=   7.5180E-01 dtmpmx=   4.4347E-02

== TH FLOW =====================================================================
 Step    175 Time=  8.15000E+00 Dt=  5.00000E-02 [y] snes_conv_reason:   11
  newton =   1 [     182] linear =   116 [     24103] cuts =  0 [   0]
  --> max chng: dpmx=   7.5137E-01 dtmpmx=   4.4125E-02

== TH FLOW =====================================================================
 Step    176 Time=  8.20000E+00 Dt=  5.00000E-02 [y] snes_conv_reason:   11
  newton =   1 [     183] linear =   128 [     24231] cuts =  0 [   0]
  --> max chng: dpmx=   7.5114E-01 dtmpmx=   4.3884E-02

== TH FLOW =====================================================================
 Step    177 Time=  8.25000E+00 Dt=  5.00000E-02 [y] snes_conv_reason:   11
  newton =   1 [     184] linear =   130 [     24361] cuts =  0 [   0]
  --> max chng: dpmx=   7.5123E-01 dtmpmx=   4.3702E-02

== TH FLOW =====================================================================
 Step    178 Time=  8.30000E+00 Dt=  5.00000E-02 [y] snes_conv_reason:   11
  newton =   1 [     185] linear =   131 [     24492] cuts =  0 [   0]
  --> max chng: dpmx=   7.5133E-01 dtmpmx=   4.3629E-02

== TH FLOW =====================================================================
 Step    179 Time=  8.35000E+00 Dt=  5.00000E-02 [y] snes_conv_reason:   11
  newton =   1 [     186] linear =   135 [     24627] cuts =  0 [   0]
  --> max chng: dpmx=   7.5133E-01 dtmpmx=   4.3536E-02

== TH FLOW =====================================================================
 Step    180 Time=  8.40000E+00 Dt=  5.00000E-02 [y] snes_conv_reason:   11
  newton =   1 [     187] linear =   134 [     24761] cuts =  0 [   0]
  --> max chng: dpmx=   7.5158E-01 dtmpmx=   4.3422E-02

== TH FLOW =====================================================================
 Step    181 Time=  8.45000E+00 Dt=  5.00000E-02 [y] snes_conv_reason:   11
  newton =   1 [     188] linear =   134 [     24895] cuts =  0 [   0]
  --> max chng: dpmx=   7.5140E-01 dtmpmx=   4.3289E-02

== TH FLOW =====================================================================
 Step    182 Time=  8.50000E+00 Dt=  5.00000E-02 [y] snes_conv_reason:   11
  newton =   1 [     189] linear =   131 [     25026] cuts =  0 [   0]
  --> max chng: dpmx=   7.5131E-01 dtmpmx=   4.3136E-02

== TH FLOW =====================================================================
 Step    183 Time=  8.55000E+00 Dt=  5.00000E-02 [y] snes_conv_reason:   11
  newton =   1 [     190] linear =   135 [     25161] cuts =  0 [   0]
  --> max chng: dpmx=   7.5111E-01 dtmpmx=   4.2989E-02

== TH FLOW =====================================================================
 Step    184 Time=  8.60000E+00 Dt=  5.00000E-02 [y] snes_conv_reason:   11
  newton =   1 [     191] linear =   135 [     25296] cuts =  0 [   0]
  --> max chng: dpmx=   7.5093E-01 dtmpmx=   4.2823E-02

== TH FLOW =====================================================================
 Step    185 Time=  8.65000E+00 Dt=  5.00000E-02 [y] snes_conv_reason:   11
  newton =   1 [     192] linear =   135 [     25431] cuts =  0 [   0]
  --> max chng: dpmx=   7.5089E-01 dtmpmx=   4.2638E-02

== TH FLOW =====================================================================
 Step    186 Time=  8.70000E+00 Dt=  5.00000E-02 [y] snes_conv_reason:   11
  newton =   1 [     193] linear =   134 [     25565] cuts =  0 [   0]
  --> max chng: dpmx=   7.5107E-01 dtmpmx=   4.2435E-02

== TH FLOW =====================================================================
 Step    187 Time=  8.75000E+00 Dt=  5.00000E-02 [y] snes_conv_reason:   11
  newton =   1 [     194] linear =   133 [     25698] cuts =  0 [   0]
  --> max chng: dpmx=   7.5099E-01 dtmpmx=   4.2215E-02

== TH FLOW =====================================================================
 Step    188 Time=  8.80000E+00 Dt=  5.00000E-02 [y] snes_conv_reason:   11
  newton =   1 [     195] linear =   137 [     25835] cuts =  0 [   0]
  --> max chng: dpmx=   7.5110E-01 dtmpmx=   4.2106E-02

== TH FLOW =====================================================================
 Step    189 Time=  8.85000E+00 Dt=  5.00000E-02 [y] snes_conv_reason:   11
  newton =   1 [     196] linear =   131 [     25966] cuts =  0 [   0]
  --> max chng: dpmx=   7.5084E-01 dtmpmx=   4.2037E-02

== TH FLOW =====================================================================
 Step    190 Time=  8.90000E+00 Dt=  5.00000E-02 [y] snes_conv_reason:   11
  newton =   1 [     197] linear =   139 [     26105] cuts =  0 [   0]
  --> max chng: dpmx=   7.5096E-01 dtmpmx=   4.1950E-02

== TH FLOW =====================================================================
 Step    191 Time=  8.95000E+00 Dt=  5.00000E-02 [y] snes_conv_reason:   11
  newton =   1 [     198] linear =   135 [     26240] cuts =  0 [   0]
  --> max chng: dpmx=   7.5093E-01 dtmpmx=   4.1844E-02

== TH FLOW =====================================================================
 Step    192 Time=  9.00000E+00 Dt=  5.00000E-02 [y] snes_conv_reason:   11
  newton =   1 [     199] linear =   136 [     26376] cuts =  0 [   0]
  --> max chng: dpmx=   7.5064E-01 dtmpmx=   4.1720E-02

== TH FLOW =====================================================================
 Step    193 Time=  9.05000E+00 Dt=  5.00000E-02 [y] snes_conv_reason:   11
  newton =   1 [     200] linear =   132 [     26508] cuts =  0 [   0]
  --> max chng: dpmx=   7.5050E-01 dtmpmx=   4.1578E-02

== TH FLOW =====================================================================
 Step    194 Time=  9.10000E+00 Dt=  5.00000E-02 [y] snes_conv_reason:   11
  newton =   1 [     201] linear =   133 [     26641] cuts =  0 [   0]
  --> max chng: dpmx=   7.5017E-01 dtmpmx=   4.1431E-02

== TH FLOW =====================================================================
 Step    195 Time=  9.15000E+00 Dt=  5.00000E-02 [y] snes_conv_reason:   11
  newton =   1 [     202] linear =   138 [     26779] cuts =  0 [   0]
  --> max chng: dpmx=   7.5089E-01 dtmpmx=   4.1278E-02

== TH FLOW =====================================================================
 Step    196 Time=  9.20000E+00 Dt=  5.00000E-02 [y] snes_conv_reason:   11
  newton =   1 [     203] linear =   135 [     26914] cuts =  0 [   0]
  --> max chng: dpmx=   7.5053E-01 dtmpmx=   4.1108E-02

== TH FLOW =====================================================================
 Step    197 Time=  9.25000E+00 Dt=  5.00000E-02 [y] snes_conv_reason:   11
  newton =   1 [     204] linear =   135 [     27049] cuts =  0 [   0]
  --> max chng: dpmx=   7.5044E-01 dtmpmx=   4.0922E-02

== TH FLOW =====================================================================
 Step    198 Time=  9.30000E+00 Dt=  5.00000E-02 [y] snes_conv_reason:   11
  newton =   1 [     205] linear =   135 [     27184] cuts =  0 [   0]
  --> max chng: dpmx=   7.5057E-01 dtmpmx=   4.0720E-02

== TH FLOW =====================================================================
 Step    199 Time=  9.35000E+00 Dt=  5.00000E-02 [y] snes_conv_reason:   11
  newton =   1 [     206] linear =   136 [     27320] cuts =  0 [   0]
  --> max chng: dpmx=   7.5029E-01 dtmpmx=   4.0666E-02

== TH FLOW =====================================================================
 Step    200 Time=  9.40000E+00 Dt=  5.00000E-02 [y] snes_conv_reason:   11
  newton =   1 [     207] linear =   135 [     27455] cuts =  0 [   0]
  --> max chng: dpmx=   7.5008E-01 dtmpmx=   4.0601E-02

== TH FLOW =====================================================================
 Step    201 Time=  9.45000E+00 Dt=  5.00000E-02 [y] snes_conv_reason:   11
  newton =   1 [     208] linear =   133 [     27588] cuts =  0 [   0]
  --> max chng: dpmx=   7.5006E-01 dtmpmx=   4.0518E-02

== TH FLOW =====================================================================
 Step    202 Time=  9.50000E+00 Dt=  5.00000E-02 [y] snes_conv_reason:   11
  newton =   1 [     209] linear =   130 [     27718] cuts =  0 [   0]
  --> max chng: dpmx=   7.4991E-01 dtmpmx=   4.0420E-02

== TH FLOW =====================================================================
 Step    203 Time=  9.55000E+00 Dt=  5.00000E-02 [y] snes_conv_reason:   11
  newton =   1 [     210] linear =   134 [     27852] cuts =  0 [   0]
  --> max chng: dpmx=   7.5014E-01 dtmpmx=   4.0305E-02

== TH FLOW =====================================================================
 Step    204 Time=  9.60000E+00 Dt=  5.00000E-02 [y] snes_conv_reason:   11
  newton =   1 [     211] linear =   133 [     27985] cuts =  0 [   0]
  --> max chng: dpmx=   7.4995E-01 dtmpmx=   4.0174E-02

== TH FLOW =====================================================================
 Step    205 Time=  9.65000E+00 Dt=  5.00000E-02 [y] snes_conv_reason:   11
  newton =   1 [     212] linear =   131 [     28116] cuts =  0 [   0]
  --> max chng: dpmx=   7.4985E-01 dtmpmx=   4.0027E-02

== TH FLOW =====================================================================
 Step    206 Time=  9.70000E+00 Dt=  5.00000E-02 [y] snes_conv_reason:   11
  newton =   1 [     213] linear =   133 [     28249] cuts =  0 [   0]
  --> max chng: dpmx=   7.4995E-01 dtmpmx=   3.9884E-02

== TH FLOW =====================================================================
 Step    207 Time=  9.75000E+00 Dt=  5.00000E-02 [y] snes_conv_reason:   11
  newton =   1 [     214] linear =   130 [     28379] cuts =  0 [   0]
  --> max chng: dpmx=   7.4966E-01 dtmpmx=   3.9727E-02

== TH FLOW =====================================================================
 Step    208 Time=  9.80000E+00 Dt=  5.00000E-02 [y] snes_conv_reason:   11
  newton =   1 [     215] linear =   131 [     28510] cuts =  0 [   0]
  --> max chng: dpmx=   7.4959E-01 dtmpmx=   3.9555E-02

== TH FLOW =====================================================================
 Step    209 Time=  9.85000E+00 Dt=  5.00000E-02 [y] snes_conv_reason:   11
  newton =   1 [     216] linear =   130 [     28640] cuts =  0 [   0]
  --> max chng: dpmx=   7.4907E-01 dtmpmx=   3.9405E-02

== TH FLOW =====================================================================
 Step    210 Time=  9.90000E+00 Dt=  5.00000E-02 [y] snes_conv_reason:   11
  newton =   1 [     217] linear =   127 [     28767] cuts =  0 [   0]
  --> max chng: dpmx=   7.4953E-01 dtmpmx=   3.9358E-02

== TH FLOW =====================================================================
 Step    211 Time=  9.95000E+00 Dt=  5.00000E-02 [y] snes_conv_reason:   11
  newton =   1 [     218] linear =   136 [     28903] cuts =  0 [   0]
  --> max chng: dpmx=   7.4919E-01 dtmpmx=   3.9296E-02

== TH FLOW =====================================================================
 Step    212 Time=  1.00000E+01 Dt=  5.00000E-02 [y] snes_conv_reason:   11
  newton =   1 [     219] linear =   125 [     29028] cuts =  0 [   0]
  --> max chng: dpmx=   7.4936E-01 dtmpmx=   3.9219E-02

== TH FLOW =====================================================================
 Step    213 Time=  1.00500E+01 Dt=  5.00000E-02 [y] snes_conv_reason:   11
  newton =   1 [     220] linear =   128 [     29156] cuts =  0 [   0]
  --> max chng: dpmx=   7.4913E-01 dtmpmx=   3.9127E-02

== TH FLOW =====================================================================
 Step    214 Time=  1.01000E+01 Dt=  5.00000E-02 [y] snes_conv_reason:   11
  newton =   1 [     221] linear =   125 [     29281] cuts =  0 [   0]
  --> max chng: dpmx=   7.4911E-01 dtmpmx=   3.9019E-02

== TH FLOW =====================================================================
 Step    215 Time=  1.01500E+01 Dt=  5.00000E-02 [y] snes_conv_reason:   11
  newton =   1 [     222] linear =   126 [     29407] cuts =  0 [   0]
  --> max chng: dpmx=   7.4912E-01 dtmpmx=   3.8898E-02

== TH FLOW =====================================================================
 Step    216 Time=  1.02000E+01 Dt=  5.00000E-02 [y] snes_conv_reason:   11
  newton =   1 [     223] linear =   128 [     29535] cuts =  0 [   0]
  --> max chng: dpmx=   7.4885E-01 dtmpmx=   3.8762E-02

== TH FLOW =====================================================================
 Step    217 Time=  1.02500E+01 Dt=  5.00000E-02 [y] snes_conv_reason:   11
  newton =   1 [     224] linear =   125 [     29660] cuts =  0 [   0]
  --> max chng: dpmx=   7.4876E-01 dtmpmx=   3.8619E-02

== TH FLOW =====================================================================
 Step    218 Time=  1.03000E+01 Dt=  5.00000E-02 [y] snes_conv_reason:   11
  newton =   1 [     225] linear =   128 [     29788] cuts =  0 [   0]
  --> max chng: dpmx=   7.4831E-01 dtmpmx=   3.8473E-02

== TH FLOW =====================================================================
 Step    219 Time=  1.03500E+01 Dt=  5.00000E-02 [y] snes_conv_reason:   11
  newton =   1 [     226] linear =   129 [     29917] cuts =  0 [   0]
  --> max chng: dpmx=   7.4863E-01 dtmpmx=   3.8314E-02

== TH FLOW =====================================================================
 Step    220 Time=  1.04000E+01 Dt=  5.00000E-02 [y] snes_conv_reason:   11
  newton =   1 [     227] linear =   128 [     30045] cuts =  0 [   0]
  --> max chng: dpmx=   7.4842E-01 dtmpmx=   3.8210E-02

== TH FLOW =====================================================================
 Step    221 Time=  1.04500E+01 Dt=  5.00000E-02 [y] snes_conv_reason:   11
  newton =   1 [     228] linear =   130 [     30175] cuts =  0 [   0]
  --> max chng: dpmx=   7.4842E-01 dtmpmx=   3.8165E-02

== TH FLOW =====================================================================
 Step    222 Time=  1.05000E+01 Dt=  5.00000E-02 [y] snes_conv_reason:   11
  newton =   1 [     229] linear =   131 [     30306] cuts =  0 [   0]
  --> max chng: dpmx=   7.4830E-01 dtmpmx=   3.8106E-02

== TH FLOW =====================================================================
 Step    223 Time=  1.05500E+01 Dt=  5.00000E-02 [y] snes_conv_reason:   11
  newton =   1 [     230] linear =   134 [     30440] cuts =  0 [   0]
  --> max chng: dpmx=   7.4804E-01 dtmpmx=   3.8033E-02

== TH FLOW =====================================================================
 Step    224 Time=  1.06000E+01 Dt=  5.00000E-02 [y] snes_conv_reason:   11
  newton =   1 [     231] linear =   134 [     30574] cuts =  0 [   0]
  --> max chng: dpmx=   7.4820E-01 dtmpmx=   3.7946E-02

== TH FLOW =====================================================================
 Step    225 Time=  1.06500E+01 Dt=  5.00000E-02 [y] snes_conv_reason:   11
  newton =   1 [     232] linear =   136 [     30710] cuts =  0 [   0]
  --> max chng: dpmx=   7.4792E-01 dtmpmx=   3.7846E-02

== TH FLOW =====================================================================
 Step    226 Time=  1.07000E+01 Dt=  5.00000E-02 [y] snes_conv_reason:   11
  newton =   1 [     233] linear =   135 [     30845] cuts =  0 [   0]
  --> max chng: dpmx=   7.4758E-01 dtmpmx=   3.7732E-02

== TH FLOW =====================================================================
 Step    227 Time=  1.07500E+01 Dt=  5.00000E-02 [y] snes_conv_reason:   11
  newton =   1 [     234] linear =   129 [     30974] cuts =  0 [   0]
  --> max chng: dpmx=   7.4754E-01 dtmpmx=   3.7606E-02

== TH FLOW =====================================================================
 Step    228 Time=  1.08000E+01 Dt=  5.00000E-02 [y] snes_conv_reason:   11
  newton =   1 [     235] linear =   133 [     31107] cuts =  0 [   0]
  --> max chng: dpmx=   7.4758E-01 dtmpmx=   3.7466E-02

== TH FLOW =====================================================================
 Step    229 Time=  1.08500E+01 Dt=  5.00000E-02 [y] snes_conv_reason:   11
  newton =   1 [     236] linear =   125 [     31232] cuts =  0 [   0]
  --> max chng: dpmx=   7.4731E-01 dtmpmx=   3.7328E-02

== TH FLOW =====================================================================
 Step    230 Time=  1.09000E+01 Dt=  5.00000E-02 [y] snes_conv_reason:   11
  newton =   1 [     237] linear =   131 [     31363] cuts =  0 [   0]
  --> max chng: dpmx=   7.4771E-01 dtmpmx=   3.7180E-02

== TH FLOW =====================================================================
 Step    231 Time=  1.09500E+01 Dt=  5.00000E-02 [y] snes_conv_reason:   11
  newton =   1 [     238] linear =   124 [     31487] cuts =  0 [   0]
  --> max chng: dpmx=   7.4689E-01 dtmpmx=   3.7113E-02

== TH FLOW =====================================================================
 Step    232 Time=  1.10000E+01 Dt=  5.00000E-02 [y] snes_conv_reason:   11
  newton =   1 [     239] linear =   134 [     31621] cuts =  0 [   0]
  --> max chng: dpmx=   7.4731E-01 dtmpmx=   3.7070E-02

== TH FLOW =====================================================================
 Step    233 Time=  1.10500E+01 Dt=  5.00000E-02 [y] snes_conv_reason:   11
  newton =   1 [     240] linear =   134 [     31755] cuts =  0 [   0]
  --> max chng: dpmx=   7.4692E-01 dtmpmx=   3.7014E-02

== TH FLOW =====================================================================
 Step    234 Time=  1.11000E+01 Dt=  5.00000E-02 [y] snes_conv_reason:   11
  newton =   1 [     241] linear =   135 [     31890] cuts =  0 [   0]
  --> max chng: dpmx=   7.4679E-01 dtmpmx=   3.6945E-02

== TH FLOW =====================================================================
 Step    235 Time=  1.11500E+01 Dt=  5.00000E-02 [y] snes_conv_reason:   11
  newton =   1 [     242] linear =   133 [     32023] cuts =  0 [   0]
  --> max chng: dpmx=   7.4666E-01 dtmpmx=   3.6863E-02

== TH FLOW =====================================================================
 Step    236 Time=  1.12000E+01 Dt=  5.00000E-02 [y] snes_conv_reason:   11
  newton =   1 [     243] linear =   131 [     32154] cuts =  0 [   0]
  --> max chng: dpmx=   7.4641E-01 dtmpmx=   3.6769E-02

== TH FLOW =====================================================================
 Step    237 Time=  1.12500E+01 Dt=  5.00000E-02 [y] snes_conv_reason:   11
  newton =   1 [     244] linear =   129 [     32283] cuts =  0 [   0]
  --> max chng: dpmx=   7.4649E-01 dtmpmx=   3.6662E-02

== TH FLOW =====================================================================
 Step    238 Time=  1.13000E+01 Dt=  5.00000E-02 [y] snes_conv_reason:   11
  newton =   1 [     245] linear =   136 [     32419] cuts =  0 [   0]
  --> max chng: dpmx=   7.4639E-01 dtmpmx=   3.6544E-02

== TH FLOW =====================================================================
 Step    239 Time=  1.13500E+01 Dt=  5.00000E-02 [y] snes_conv_reason:   11
  newton =   1 [     246] linear =   135 [     32554] cuts =  0 [   0]
  --> max chng: dpmx=   7.4626E-01 dtmpmx=   3.6414E-02

== TH FLOW =====================================================================
 Step    240 Time=  1.14000E+01 Dt=  5.00000E-02 [y] snes_conv_reason:   11
  newton =   1 [     247] linear =   135 [     32689] cuts =  0 [   0]
  --> max chng: dpmx=   7.4611E-01 dtmpmx=   3.6276E-02

== TH FLOW =====================================================================
 Step    241 Time=  1.14500E+01 Dt=  5.00000E-02 [y] snes_conv_reason:   11
  newton =   1 [     248] linear =   134 [     32823] cuts =  0 [   0]
  --> max chng: dpmx=   7.4577E-01 dtmpmx=   3.6138E-02

== TH FLOW =====================================================================
 Step    242 Time=  1.15000E+01 Dt=  5.00000E-02 [y] snes_conv_reason:   11
  newton =   1 [     249] linear =   131 [     32954] cuts =  0 [   0]
  --> max chng: dpmx=   7.4588E-01 dtmpmx=   3.6102E-02

== TH FLOW =====================================================================
 Step    243 Time=  1.15500E+01 Dt=  5.00000E-02 [y] snes_conv_reason:   11
  newton =   1 [     250] linear =   136 [     33090] cuts =  0 [   0]
  --> max chng: dpmx=   7.4533E-01 dtmpmx=   3.6060E-02

== TH FLOW =====================================================================
 Step    244 Time=  1.16000E+01 Dt=  5.00000E-02 [y] snes_conv_reason:   11
  newton =   1 [     251] linear =   135 [     33225] cuts =  0 [   0]
  --> max chng: dpmx=   7.4547E-01 dtmpmx=   3.6007E-02

== TH FLOW =====================================================================
 Step    245 Time=  1.16500E+01 Dt=  5.00000E-02 [y] snes_conv_reason:   11
  newton =   1 [     252] linear =   136 [     33361] cuts =  0 [   0]
  --> max chng: dpmx=   7.4525E-01 dtmpmx=   3.5941E-02

== TH FLOW =====================================================================
 Step    246 Time=  1.17000E+01 Dt=  5.00000E-02 [y] snes_conv_reason:   11
  newton =   1 [     253] linear =   122 [     33483] cuts =  0 [   0]
  --> max chng: dpmx=   7.4505E-01 dtmpmx=   3.5864E-02

== TH FLOW =====================================================================
 Step    247 Time=  1.17500E+01 Dt=  5.00000E-02 [y] snes_conv_reason:   11
  newton =   1 [     254] linear =   136 [     33619] cuts =  0 [   0]
  --> max chng: dpmx=   7.4524E-01 dtmpmx=   3.5775E-02

== TH FLOW =====================================================================
 Step    248 Time=  1.18000E+01 Dt=  5.00000E-02 [y] snes_conv_reason:   11
  newton =   1 [     255] linear =   132 [     33751] cuts =  0 [   0]
  --> max chng: dpmx=   7.4503E-01 dtmpmx=   3.5675E-02

== TH FLOW =====================================================================
 Step    249 Time=  1.18500E+01 Dt=  5.00000E-02 [y] snes_conv_reason:   11
  newton =   1 [     256] linear =   132 [     33883] cuts =  0 [   0]
  --> max chng: dpmx=   7.4460E-01 dtmpmx=   3.5564E-02

== TH FLOW =====================================================================
 Step    250 Time=  1.19000E+01 Dt=  5.00000E-02 [y] snes_conv_reason:   11
  newton =   1 [     257] linear =   132 [     34015] cuts =  0 [   0]
  --> max chng: dpmx=   7.4472E-01 dtmpmx=   3.5442E-02

== TH FLOW =====================================================================
 Step    251 Time=  1.19500E+01 Dt=  5.00000E-02 [y] snes_conv_reason:   11
  newton =   1 [     258] linear =   132 [     34147] cuts =  0 [   0]
  --> max chng: dpmx=   7.4441E-01 dtmpmx=   3.5310E-02

== TH FLOW =====================================================================
 Step    252 Time=  1.20000E+01 Dt=  5.00000E-02 [y] snes_conv_reason:   11
  newton =   1 [     259] linear =   125 [     34272] cuts =  0 [   0]
  --> max chng: dpmx=   7.4407E-01 dtmpmx=   3.5195E-02

== TH FLOW =====================================================================
 Step    253 Time=  1.20500E+01 Dt=  5.00000E-02 [y] snes_conv_reason:   11
  newton =   1 [     260] linear =   128 [     34400] cuts =  0 [   0]
  --> max chng: dpmx=   7.4415E-01 dtmpmx=   3.5166E-02

== TH FLOW =====================================================================
 Step    254 Time=  1.21000E+01 Dt=  5.00000E-02 [y] snes_conv_reason:   11
  newton =   1 [     261] linear =   127 [     34527] cuts =  0 [   0]
  --> max chng: dpmx=   7.4409E-01 dtmpmx=   3.5126E-02

== TH FLOW =====================================================================
 Step    255 Time=  1.21500E+01 Dt=  5.00000E-02 [y] snes_conv_reason:   11
  newton =   1 [     262] linear =   135 [     34662] cuts =  0 [   0]
  --> max chng: dpmx=   7.4367E-01 dtmpmx=   3.5074E-02

== TH FLOW =====================================================================
 Step    256 Time=  1.22000E+01 Dt=  5.00000E-02 [y] snes_conv_reason:   11
  newton =   1 [     263] linear =   133 [     34795] cuts =  0 [   0]
  --> max chng: dpmx=   7.4371E-01 dtmpmx=   3.5012E-02

== TH FLOW =====================================================================
 Step    257 Time=  1.22500E+01 Dt=  5.00000E-02 [y] snes_conv_reason:   11
  newton =   1 [     264] linear =   127 [     34922] cuts =  0 [   0]
  --> max chng: dpmx=   7.4365E-01 dtmpmx=   3.4939E-02

[...]
 Step    493 Time=  2.40500E+01 Dt=  5.00000E-02 [y] snes_conv_reason:   11
  newton =   1 [     500] linear =   131 [     65997] cuts =  0 [   0]
  --> max chng: dpmx=   6.9384E-01 dtmpmx=   2.3864E-02

== TH FLOW =====================================================================
 Step    494 Time=  2.41000E+01 Dt=  5.00000E-02 [y] snes_conv_reason:   11
  newton =   1 [     501] linear =   132 [     66129] cuts =  0 [   0]
  --> max chng: dpmx=   6.9347E-01 dtmpmx=   2.3846E-02

== TH FLOW =====================================================================
 Step    495 Time=  2.41500E+01 Dt=  5.00000E-02 [y] snes_conv_reason:   11
  newton =   1 [     502] linear =   131 [     66260] cuts =  0 [   0]
  --> max chng: dpmx=   6.9336E-01 dtmpmx=   2.3824E-02

== TH FLOW =====================================================================
 Step    496 Time=  2.42000E+01 Dt=  5.00000E-02 [y] snes_conv_reason:   11
  newton =   1 [     503] linear =   132 [     66392] cuts =  0 [   0]
  --> max chng: dpmx=   6.9331E-01 dtmpmx=   2.3799E-02

== TH FLOW =====================================================================
 Step    497 Time=  2.42500E+01 Dt=  5.00000E-02 [y] snes_conv_reason:   11
  newton =   1 [     504] linear =   132 [     66524] cuts =  0 [   0]
  --> max chng: dpmx=   6.9330E-01 dtmpmx=   2.3769E-02

== TH FLOW =====================================================================
 Step    498 Time=  2.43000E+01 Dt=  5.00000E-02 [y] snes_conv_reason:   11
  newton =   1 [     505] linear =   132 [     66656] cuts =  0 [   0]
  --> max chng: dpmx=   6.9258E-01 dtmpmx=   2.3737E-02

== TH FLOW =====================================================================
 Step    499 Time=  2.43500E+01 Dt=  5.00000E-02 [y] snes_conv_reason:   11
  newton =   1 [     506] linear =   132 [     66788] cuts =  0 [   0]
  --> max chng: dpmx=   6.9287E-01 dtmpmx=   2.3701E-02

== TH FLOW =====================================================================
 Step    500 Time=  2.44000E+01 Dt=  5.00000E-02 [y] snes_conv_reason:   11
  newton =   1 [     507] linear =   134 [     66922] cuts =  0 [   0]
  --> max chng: dpmx=   6.9245E-01 dtmpmx=   2.3661E-02

== TH FLOW =====================================================================
 Step    501 Time=  2.44500E+01 Dt=  5.00000E-02 [y] snes_conv_reason:   11
  newton =   1 [     508] linear =   133 [     67055] cuts =  0 [   0]
  --> max chng: dpmx=   6.9204E-01 dtmpmx=   2.3618E-02

== TH FLOW =====================================================================
 Step    502 Time=  2.45000E+01 Dt=  5.00000E-02 [y] snes_conv_reason:   11
  newton =   1 [     509] linear =   133 [     67188] cuts =  0 [   0]
  --> max chng: dpmx=   6.9186E-01 dtmpmx=   2.3588E-02

== TH FLOW =====================================================================
 Step    503 Time=  2.45500E+01 Dt=  5.00000E-02 [y] snes_conv_reason:   11
  newton =   1 [     510] linear =   130 [     67318] cuts =  0 [   0]
  --> max chng: dpmx=   6.9186E-01 dtmpmx=   2.3577E-02

== TH FLOW =====================================================================
 Step    504 Time=  2.46000E+01 Dt=  5.00000E-02 [y] snes_conv_reason:   11
  newton =   1 [     511] linear =   131 [     67449] cuts =  0 [   0]
  --> max chng: dpmx=   6.9138E-01 dtmpmx=   2.3562E-02

== TH FLOW =====================================================================
 Step    505 Time=  2.46500E+01 Dt=  5.00000E-02 [y] snes_conv_reason:   11
  newton =   1 [     512] linear =   134 [     67583] cuts =  0 [   0]
  --> max chng: dpmx=   6.9139E-01 dtmpmx=   2.3544E-02

== TH FLOW =====================================================================
 Step    506 Time=  2.47000E+01 Dt=  5.00000E-02 [y] snes_conv_reason:   11
  newton =   1 [     513] linear =   130 [     67713] cuts =  0 [   0]
  --> max chng: dpmx=   6.9120E-01 dtmpmx=   2.3522E-02

== TH FLOW =====================================================================
 Step    507 Time=  2.47500E+01 Dt=  5.00000E-02 [y] snes_conv_reason:   11
  newton =   1 [     514] linear =   130 [     67843] cuts =  0 [   0]
  --> max chng: dpmx=   6.9089E-01 dtmpmx=   2.3497E-02

== TH FLOW =====================================================================
 Step    508 Time=  2.48000E+01 Dt=  5.00000E-02 [y] snes_conv_reason:   11
  newton =   1 [     515] linear =   132 [     67975] cuts =  0 [   0]
  --> max chng: dpmx=   6.9074E-01 dtmpmx=   2.3468E-02

== TH FLOW =====================================================================
 Step    509 Time=  2.48500E+01 Dt=  5.00000E-02 [y] snes_conv_reason:   11
  newton =   1 [     516] linear =   129 [     68104] cuts =  0 [   0]
  --> max chng: dpmx=   6.9046E-01 dtmpmx=   2.3436E-02

== TH FLOW =====================================================================
 Step    510 Time=  2.49000E+01 Dt=  5.00000E-02 [y] snes_conv_reason:   11
  newton =   1 [     517] linear =   131 [     68235] cuts =  0 [   0]
  --> max chng: dpmx=   6.9010E-01 dtmpmx=   2.3401E-02

== TH FLOW =====================================================================
 Step    511 Time=  2.49500E+01 Dt=  5.00000E-02 [y] snes_conv_reason:   11
  newton =   1 [     518] linear =   132 [     68367] cuts =  0 [   0]
  --> max chng: dpmx=   6.9005E-01 dtmpmx=   2.3362E-02

== TH FLOW =====================================================================
 Step    512 Time=  2.50000E+01 Dt=  5.00000E-02 [y] snes_conv_reason:   11
  newton =   1 [     519] linear =   124 [     68491] cuts =  0 [   0]
  --> max chng: dpmx=   6.8955E-01 dtmpmx=   2.3320E-02

== TH FLOW =====================================================================
 Step    513 Time=  2.50500E+01 Dt=  5.00000E-02 [y] snes_conv_reason:   11
  newton =   1 [     520] linear =   116 [     68607] cuts =  0 [   0]
  --> max chng: dpmx=   6.8960E-01 dtmpmx=   2.3297E-02

== TH FLOW =====================================================================
 Step    514 Time=  2.51000E+01 Dt=  5.00000E-02 [y] snes_conv_reason:   11
  newton =   1 [     521] linear =   131 [     68738] cuts =  0 [   0]
  --> max chng: dpmx=   6.8922E-01 dtmpmx=   2.3285E-02

== TH FLOW =====================================================================
 Step    515 Time=  2.51500E+01 Dt=  5.00000E-02 [y] snes_conv_reason:   11
  newton =   1 [     522] linear =   133 [     68871] cuts =  0 [   0]
  --> max chng: dpmx=   6.8939E-01 dtmpmx=   2.3270E-02

== TH FLOW =====================================================================
 Step    516 Time=  2.52000E+01 Dt=  5.00000E-02 [y] snes_conv_reason:   11
  newton =   1 [     523] linear =   123 [     68994] cuts =  0 [   0]
  --> max chng: dpmx=   6.8865E-01 dtmpmx=   2.3252E-02

== TH FLOW =====================================================================
 Step    517 Time=  2.52500E+01 Dt=  5.00000E-02 [y] snes_conv_reason:   11
  newton =   1 [     524] linear =   135 [     69129] cuts =  0 [   0]
  --> max chng: dpmx=   6.8895E-01 dtmpmx=   2.3230E-02

== TH FLOW =====================================================================
 Step    518 Time=  2.53000E+01 Dt=  5.00000E-02 [y] snes_conv_reason:   11
  newton =   1 [     525] linear =   131 [     69260] cuts =  0 [   0]
  --> max chng: dpmx=   6.8856E-01 dtmpmx=   2.3205E-02

== TH FLOW =====================================================================
 Step    519 Time=  2.53500E+01 Dt=  5.00000E-02 [y] snes_conv_reason:   11
  newton =   1 [     526] linear =   132 [     69392] cuts =  0 [   0]
  --> max chng: dpmx=   6.8840E-01 dtmpmx=   2.3177E-02

== TH FLOW =====================================================================
 Step    520 Time=  2.54000E+01 Dt=  5.00000E-02 [y] snes_conv_reason:   11
  newton =   1 [     527] linear =   125 [     69517] cuts =  0 [   0]
  --> max chng: dpmx=   6.8768E-01 dtmpmx=   2.3145E-02

== TH FLOW =====================================================================
 Step    521 Time=  2.54500E+01 Dt=  5.00000E-02 [y] snes_conv_reason:   11
  newton =   1 [     528] linear =   133 [     69650] cuts =  0 [   0]
  --> max chng: dpmx=   6.8785E-01 dtmpmx=   2.3111E-02

== TH FLOW =====================================================================
 Step    522 Time=  2.55000E+01 Dt=  5.00000E-02 [y] snes_conv_reason:   11
  newton =   1 [     529] linear =   132 [     69782] cuts =  0 [   0]
  --> max chng: dpmx=   6.8761E-01 dtmpmx=   2.3073E-02

== TH FLOW =====================================================================
 Step    523 Time=  2.55500E+01 Dt=  5.00000E-02 [y] snes_conv_reason:   11
  newton =   1 [     530] linear =   131 [     69913] cuts =  0 [   0]
  --> max chng: dpmx=   6.8723E-01 dtmpmx=   2.3031E-02

== TH FLOW =====================================================================
 Step    524 Time=  2.56000E+01 Dt=  5.00000E-02 [y] snes_conv_reason:   11
  newton =   1 [     531] linear =   133 [     70046] cuts =  0 [   0]
  --> max chng: dpmx=   6.8743E-01 dtmpmx=   2.3014E-02

== TH FLOW =====================================================================
 Step    525 Time=  2.56500E+01 Dt=  5.00000E-02 [y] snes_conv_reason:   11
  newton =   1 [     532] linear =   135 [     70181] cuts =  0 [   0]
  --> max chng: dpmx=   6.8693E-01 dtmpmx=   2.3002E-02

== TH FLOW =====================================================================
 Step    526 Time=  2.57000E+01 Dt=  5.00000E-02 [y] snes_conv_reason:   11
  newton =   1 [     533] linear =   133 [     70314] cuts =  0 [   0]
  --> max chng: dpmx=   6.8677E-01 dtmpmx=   2.2987E-02

== TH FLOW =====================================================================
 Step    527 Time=  2.57500E+01 Dt=  5.00000E-02 [y] snes_conv_reason:   11
  newton =   1 [     534] linear =   134 [     70448] cuts =  0 [   0]
  --> max chng: dpmx=   6.8683E-01 dtmpmx=   2.2969E-02

== TH FLOW =====================================================================
 Step    528 Time=  2.58000E+01 Dt=  5.00000E-02 [y] snes_conv_reason:   11
  newton =   1 [     535] linear =   132 [     70580] cuts =  0 [   0]
  --> max chng: dpmx=   6.8631E-01 dtmpmx=   2.2948E-02

== TH FLOW =====================================================================
 Step    529 Time=  2.58500E+01 Dt=  5.00000E-02 [y] snes_conv_reason:   11
  newton =   1 [     536] linear =   132 [     70712] cuts =  0 [   0]
  --> max chng: dpmx=   6.8586E-01 dtmpmx=   2.2923E-02

== TH FLOW =====================================================================
 Step    530 Time=  2.59000E+01 Dt=  5.00000E-02 [y] snes_conv_reason:   11
  newton =   1 [     537] linear =   132 [     70844] cuts =  0 [   0]
  --> max chng: dpmx=   6.8564E-01 dtmpmx=   2.2895E-02

== TH FLOW =====================================================================
 Step    531 Time=  2.59500E+01 Dt=  5.00000E-02 [y] snes_conv_reason:   11
  newton =   1 [     538] linear =   135 [     70979] cuts =  0 [   0]
  --> max chng: dpmx=   6.8575E-01 dtmpmx=   2.2864E-02

== TH FLOW =====================================================================
 Step    532 Time=  2.60000E+01 Dt=  5.00000E-02 [y] snes_conv_reason:   11
  newton =   1 [     539] linear =   132 [     71111] cuts =  0 [   0]
  --> max chng: dpmx=   6.8550E-01 dtmpmx=   2.2830E-02

== TH FLOW =====================================================================
 Step    533 Time=  2.60500E+01 Dt=  5.00000E-02 [y] snes_conv_reason:   11
  newton =   1 [     540] linear =   126 [     71237] cuts =  0 [   0]
  --> max chng: dpmx=   6.8506E-01 dtmpmx=   2.2792E-02

== TH FLOW =====================================================================
 Step    534 Time=  2.61000E+01 Dt=  5.00000E-02 [y] snes_conv_reason:   11
  newton =   1 [     541] linear =   133 [     71370] cuts =  0 [   0]
  --> max chng: dpmx=   6.8515E-01 dtmpmx=   2.2752E-02

== TH FLOW =====================================================================
 Step    535 Time=  2.61500E+01 Dt=  5.00000E-02 [y] snes_conv_reason:   11
  newton =   1 [     542] linear =   135 [     71505] cuts =  0 [   0]
  --> max chng: dpmx=   6.8464E-01 dtmpmx=   2.2741E-02

== TH FLOW =====================================================================
 Step    536 Time=  2.62000E+01 Dt=  5.00000E-02 [y] snes_conv_reason:   11
  newton =   1 [     543] linear =   136 [     71641] cuts =  0 [   0]
  --> max chng: dpmx=   6.8471E-01 dtmpmx=   2.2729E-02

== TH FLOW =====================================================================
 Step    537 Time=  2.62500E+01 Dt=  5.00000E-02 [y] snes_conv_reason:   11
  newton =   1 [     544] linear =   130 [     71771] cuts =  0 [   0]
  --> max chng: dpmx=   6.8414E-01 dtmpmx=   2.2714E-02

== TH FLOW =====================================================================
 Step    538 Time=  2.63000E+01 Dt=  5.00000E-02 [y] snes_conv_reason:   11
  newton =   1 [     545] linear =   134 [     71905] cuts =  0 [   0]
  --> max chng: dpmx=   6.8434E-01 dtmpmx=   2.2695E-02

== TH FLOW =====================================================================
 Step    539 Time=  2.63500E+01 Dt=  5.00000E-02 [y] snes_conv_reason:   11
  newton =   1 [     546] linear =   133 [     72038] cuts =  0 [   0]
  --> max chng: dpmx=   6.8375E-01 dtmpmx=   2.2674E-02

== TH FLOW =====================================================================
 Step    540 Time=  2.64000E+01 Dt=  5.00000E-02 [y] snes_conv_reason:   11
  newton =   1 [     547] linear =   130 [     72168] cuts =  0 [   0]
  --> max chng: dpmx=   6.8356E-01 dtmpmx=   2.2649E-02

== TH FLOW =====================================================================
 Step    541 Time=  2.64500E+01 Dt=  5.00000E-02 [y] snes_conv_reason:   11
  newton =   1 [     548] linear =   133 [     72301] cuts =  0 [   0]
  --> max chng: dpmx=   6.8341E-01 dtmpmx=   2.2622E-02

== TH FLOW =====================================================================
 Step    542 Time=  2.65000E+01 Dt=  5.00000E-02 [y] snes_conv_reason:   11
  newton =   1 [     549] linear =   122 [     72423] cuts =  0 [   0]
  --> max chng: dpmx=   6.8320E-01 dtmpmx=   2.2591E-02

== TH FLOW =====================================================================
 Step    543 Time=  2.65500E+01 Dt=  5.00000E-02 [y] snes_conv_reason:   11
  newton =   1 [     550] linear =   126 [     72549] cuts =  0 [   0]
  --> max chng: dpmx=   6.8286E-01 dtmpmx=   2.2558E-02

== TH FLOW =====================================================================
 Step    544 Time=  2.66000E+01 Dt=  5.00000E-02 [y] snes_conv_reason:   11
  newton =   1 [     551] linear =   133 [     72682] cuts =  0 [   0]
  --> max chng: dpmx=   6.8276E-01 dtmpmx=   2.2521E-02

== TH FLOW =====================================================================
 Step    545 Time=  2.66500E+01 Dt=  5.00000E-02 [y] snes_conv_reason:   11
  newton =   1 [     552] linear =   134 [     72816] cuts =  0 [   0]
  --> max chng: dpmx=   6.8283E-01 dtmpmx=   2.2485E-02

== TH FLOW =====================================================================
 Step    546 Time=  2.67000E+01 Dt=  5.00000E-02 [y] snes_conv_reason:   11
  newton =   1 [     553] linear =   131 [     72947] cuts =  0 [   0]
  --> max chng: dpmx=   6.8236E-01 dtmpmx=   2.2476E-02

== TH FLOW =====================================================================
 Step    547 Time=  2.67500E+01 Dt=  5.00000E-02 [y] snes_conv_reason:   11
  newton =   1 [     554] linear =   129 [     73076] cuts =  0 [   0]
  --> max chng: dpmx=   6.8212E-01 dtmpmx=   2.2463E-02

== TH FLOW =====================================================================
 Step    548 Time=  2.68000E+01 Dt=  5.00000E-02 [y] snes_conv_reason:   11
  newton =   1 [     555] linear =   131 [     73207] cuts =  0 [   0]
  --> max chng: dpmx=   6.8161E-01 dtmpmx=   2.2448E-02

== TH FLOW =====================================================================
 Step    549 Time=  2.68500E+01 Dt=  5.00000E-02 [y] snes_conv_reason:   11
  newton =   1 [     556] linear =   131 [     73338] cuts =  0 [   0]
  --> max chng: dpmx=   6.8146E-01 dtmpmx=   2.2430E-02

== TH FLOW =====================================================================
 Step    550 Time=  2.69000E+01 Dt=  5.00000E-02 [y] snes_conv_reason:   11
  newton =   1 [     557] linear =   132 [     73470] cuts =  0 [   0]
  --> max chng: dpmx=   6.8152E-01 dtmpmx=   2.2409E-02

== TH FLOW =====================================================================
 Step    551 Time=  2.69500E+01 Dt=  5.00000E-02 [y] snes_conv_reason:   11
  newton =   1 [     558] linear =   131 [     73601] cuts =  0 [   0]
  --> max chng: dpmx=   6.8115E-01 dtmpmx=   2.2384E-02

== TH FLOW =====================================================================
 Step    552 Time=  2.70000E+01 Dt=  5.00000E-02 [y] snes_conv_reason:   11
  newton =   1 [     559] linear =   132 [     73733] cuts =  0 [   0]
  --> max chng: dpmx=   6.8085E-01 dtmpmx=   2.2357E-02

== TH FLOW =====================================================================
 Step    553 Time=  2.70500E+01 Dt=  5.00000E-02 [y] snes_conv_reason:   11
  newton =   1 [     560] linear =   132 [     73865] cuts =  0 [   0]
  --> max chng: dpmx=   6.8079E-01 dtmpmx=   2.2327E-02

== TH FLOW =====================================================================
 Step    554 Time=  2.71000E+01 Dt=  5.00000E-02 [y] snes_conv_reason:   11
  newton =   1 [     561] linear =   132 [     73997] cuts =  0 [   0]
  --> max chng: dpmx=   6.8058E-01 dtmpmx=   2.2294E-02

== TH FLOW =====================================================================
 Step    555 Time=  2.71500E+01 Dt=  5.00000E-02 [y] snes_conv_reason:   11
  newton =   1 [     562] linear =   131 [     74128] cuts =  0 [   0]
  --> max chng: dpmx=   6.8055E-01 dtmpmx=   2.2258E-02

== TH FLOW =====================================================================
 Step    556 Time=  2.72000E+01 Dt=  5.00000E-02 [y] snes_conv_reason:   11
  newton =   1 [     563] linear =   131 [     74259] cuts =  0 [   0]
  --> max chng: dpmx=   6.7983E-01 dtmpmx=   2.2228E-02

== TH FLOW =====================================================================
 Step    557 Time=  2.72500E+01 Dt=  5.00000E-02 [y] snes_conv_reason:   11
  newton =   1 [     564] linear =   132 [     74391] cuts =  0 [   0]
  --> max chng: dpmx=   6.7981E-01 dtmpmx=   2.2219E-02

== TH FLOW =====================================================================
 Step    558 Time=  2.73000E+01 Dt=  5.00000E-02 [y] snes_conv_reason:   11
  newton =   1 [     565] linear =   129 [     74520] cuts =  0 [   0]
  --> max chng: dpmx=   6.7937E-01 dtmpmx=   2.2206E-02

== TH FLOW =====================================================================
 Step    559 Time=  2.73500E+01 Dt=  5.00000E-02 [y] snes_conv_reason:   11
  newton =   1 [     566] linear =   130 [     74650] cuts =  0 [   0]
  --> max chng: dpmx=   6.7946E-01 dtmpmx=   2.2191E-02

== TH FLOW =====================================================================
 Step    560 Time=  2.74000E+01 Dt=  5.00000E-02 [y] snes_conv_reason:   11
  newton =   1 [     567] linear =   130 [     74780] cuts =  0 [   0]
  --> max chng: dpmx=   6.7897E-01 dtmpmx=   2.2173E-02

== TH FLOW =====================================================================
 Step    561 Time=  2.74500E+01 Dt=  5.00000E-02 [y] snes_conv_reason:   11
  newton =   1 [     568] linear =   126 [     74906] cuts =  0 [   0]
  --> max chng: dpmx=   6.7910E-01 dtmpmx=   2.2152E-02

== TH FLOW =====================================================================
 Step    562 Time=  2.75000E+01 Dt=  5.00000E-02 [y] snes_conv_reason:   11
  newton =   1 [     569] linear =   126 [     75032] cuts =  0 [   0]
  --> max chng: dpmx=   6.7883E-01 dtmpmx=   2.2128E-02

 Wall Clock Time:  1.7962E+02 [sec]   2.9937E+00 [min]   4.9896E-02 [hr]
