
===================
  PFLOTRAN v3.0.1
===================

 Extent of Gridded Domain
  X: 2.5000000000000000 - 97.500000000000000
  Y: 2.5000000000000000 - 1277.5000000000000
  Z: 2.5000000000000000 - 2.5000000000000000


=+=+=+=+=+=+=+=+=+=+=+=+=+=+=+=+=+=+=+=+=+=+=+=+=+=+=+=+=+=+=+=+=+=+=+=+=+=+=+=+

  Initial Condition

--------------------------------------------------------------------------------
          Flow Condition:   initial
                  Region:   all
--------------------------------------------------------------------------------

  Flow Condition: initial
    Synchronize time with update: no
    Time units: yr
    Length units: m
      Datum:
        Dataset: Unnamed Ascii Dataset
          Type: dataset_ascii_type
          Transient: no
          Array Rank:  3

    Sub Condition: pressure
      Type: hydrostatic
      Gradient:
        Dataset: Unnamed Ascii Dataset
          Type: dataset_ascii_type
          Transient: no
          Array Rank:  3
      Data:
        Dataset: Unnamed Ascii Dataset
          Type: dataset_ascii_type
          Transient: no
          Array Rank:  1

    Sub Condition: temperature
      Type: dirichlet
      Gradient:
      Data:
        Dataset: Unnamed Ascii Dataset
          Type: dataset_ascii_type
          Transient: no
          Array Rank:  1

--------------------------------------------------------------------------------

=+=+=+=+=+=+=+=+=+=+=+=+=+=+=+=+=+=+=+=+=+=+=+=+=+=+=+=+=+=+=+=+=+=+=+=+=+=+=+=+

  Boundary Condition

--------------------------------------------------------------------------------
          Flow Condition:   initial
                  Region:   north
--------------------------------------------------------------------------------

  Flow Condition: initial
    Synchronize time with update: no
    Time units: yr
    Length units: m
      Datum:
        Dataset: Unnamed Ascii Dataset
          Type: dataset_ascii_type
          Transient: no
          Array Rank:  3

    Sub Condition: pressure
      Type: hydrostatic
      Gradient:
        Dataset: Unnamed Ascii Dataset
          Type: dataset_ascii_type
          Transient: no
          Array Rank:  3
      Data:
        Dataset: Unnamed Ascii Dataset
          Type: dataset_ascii_type
          Transient: no
          Array Rank:  1

    Sub Condition: temperature
      Type: dirichlet
      Gradient:
      Data:
        Dataset: Unnamed Ascii Dataset
          Type: dataset_ascii_type
          Transient: no
          Array Rank:  1

--------------------------------------------------------------------------------

=+=+=+=+=+=+=+=+=+=+=+=+=+=+=+=+=+=+=+=+=+=+=+=+=+=+=+=+=+=+=+=+=+=+=+=+=+=+=+=+

  Boundary Condition

--------------------------------------------------------------------------------
          Flow Condition:   initial
                  Region:   south
--------------------------------------------------------------------------------

  Flow Condition: initial
    Synchronize time with update: no
    Time units: yr
    Length units: m
      Datum:
        Dataset: Unnamed Ascii Dataset
          Type: dataset_ascii_type
          Transient: no
          Array Rank:  3

    Sub Condition: pressure
      Type: hydrostatic
      Gradient:
        Dataset: Unnamed Ascii Dataset
          Type: dataset_ascii_type
          Transient: no
          Array Rank:  3
      Data:
        Dataset: Unnamed Ascii Dataset
          Type: dataset_ascii_type
          Transient: no
          Array Rank:  1

    Sub Condition: temperature
      Type: dirichlet
      Gradient:
      Data:
        Dataset: Unnamed Ascii Dataset
          Type: dataset_ascii_type
          Transient: no
          Array Rank:  1

--------------------------------------------------------------------------------

=+=+=+=+=+=+=+=+=+=+=+=+=+=+=+=+=+=+=+=+=+=+=+=+=+=+=+=+=+=+=+=+=+=+=+=+=+=+=+=+

  Source Sink

--------------------------------------------------------------------------------
          Flow Condition:   injection
                  Region:   heatpump_inject0
--------------------------------------------------------------------------------

  Flow Condition: injection
    Synchronize time with update: no
    Time units: yr
    Length units: m
      Datum:

    Sub Condition: rate
      Type: scaled volumetric rate
      Gradient:
      Data:
        Dataset: Unnamed Ascii Dataset
          Type: dataset_ascii_type
          Is transient?: yes
          Number of times:      3
          Is cyclic?: no
          Buffer:
            Rank:  2
            Dims:    1   3
            Buffer Slice Size:   0
          Array Rank:  1

    Sub Condition: temperature
      Type: dirichlet
      Gradient:
      Data:
        Dataset: Unnamed Ascii Dataset
          Type: dataset_ascii_type
          Transient: no
          Array Rank:  1

--------------------------------------------------------------------------------

 Requested processors =    32

FLOW Time Stepper
                 acceleration: on
       acceleration threshold: 5
       number of ramp entries: 5
                ramp entry #1: 2.0000
                ramp entry #2: 2.0000
                ramp entry #3: 2.0000
                ramp entry #4: 2.0000
                ramp entry #5: 2.0000
                ramp entry #6: 1.8000
                ramp entry #7: 1.6000
                ramp entry #8: 1.4000
                ramp entry #9: 1.2000
               ramp entry #10: 1.0000
               ramp entry #11: 1.0000
               ramp entry #12: 1.0000
               ramp entry #13: 1.0000
      maximum number of steps: 999999
constant time steps threshold: 5
       maximum number of cuts: 16
             reduction factor: 5.000000E-01
        maximum growth factor: 2.000000E+00

FLOW Newton Solver
                         atol: 1.000000E-50
                         rtol: 1.000000E-03
                         stol: 1.000000E-08
                         dtol: 1.000000E+04
                      maxnorm: 1.000000E+20
                    inftolres: -9.990000E+02
                    inftolupd: 1.000000E+00
                 inftolrelupd: -9.990000E+02
                 inftolsclres: -9.990000E+02
                     max iter: 50
                     min iter: 1
                         maxf: 10000
                  matrix type: baij
         precond. matrix type: baij
               inexact newton: off
            print convergence: on
   print detailed convergence: off
          check infinity norm: on

FLOW Linear Solver
                       solver: bcgs
               preconditioner: bjacobi
                         atol: 1.000000E-50
                         rtol: 1.000000E-05
                         dtol: 1.000000E+04
            maximum iteration: 10000

== TH FLOW =====================================================================
 Step      1 Time=  1.00000E-05 Dt=  1.00000E-05 [y] snes_conv_reason:   11
  newton =   1 [       1] linear =   116 [       116] cuts =  0 [   0]
  --> max chng: dpmx=   9.1157E-02 dtmpmx=   1.2868E-07

== TH FLOW =====================================================================
 Step      2 Time=  3.00000E-05 Dt=  2.00000E-05 [y] snes_conv_reason:   11
  newton =   1 [       2] linear =   113 [       229] cuts =  0 [   0]
  --> max chng: dpmx=   1.7050E-03 dtmpmx=   2.5713E-07

== TH FLOW =====================================================================
 Step      3 Time=  7.00000E-05 Dt=  4.00000E-05 [y] snes_conv_reason:   11
  newton =   1 [       3] linear =   118 [       347] cuts =  0 [   0]
  --> max chng: dpmx=   1.4712E-05 dtmpmx=   5.1426E-07

== TH FLOW =====================================================================
 Step      4 Time=  1.50000E-04 Dt=  8.00000E-05 [y] snes_conv_reason:   11
  newton =   1 [       4] linear =   127 [       474] cuts =  0 [   0]
  --> max chng: dpmx=   3.7990E-06 dtmpmx=   1.0285E-06

== TH FLOW =====================================================================
 Step      5 Time=  3.10000E-04 Dt=  1.60000E-04 [y] snes_conv_reason:   11
  newton =   1 [       5] linear =   122 [       596] cuts =  0 [   0]
  --> max chng: dpmx=   8.0763E-06 dtmpmx=   2.0570E-06

== TH FLOW =====================================================================
 Step      6 Time=  6.30000E-04 Dt=  3.20000E-04 [y] snes_conv_reason:   11
  newton =   1 [       6] linear =   126 [       722] cuts =  0 [   0]
  --> max chng: dpmx=   1.8078E-05 dtmpmx=   4.1141E-06

== TH FLOW =====================================================================
 Step      7 Time=  1.27000E-03 Dt=  6.40000E-04 [y] snes_conv_reason:   11
  newton =   1 [       7] linear =   131 [       853] cuts =  0 [   0]
  --> max chng: dpmx=   4.3817E-05 dtmpmx=   8.2282E-06

== TH FLOW =====================================================================
 Step      8 Time=  2.55000E-03 Dt=  1.28000E-03 [y] snes_conv_reason:   11
  newton =   1 [       8] linear =   121 [       974] cuts =  0 [   0]
  --> max chng: dpmx=   1.1807E-04 dtmpmx=   1.6456E-05

== TH FLOW =====================================================================
 Step      9 Time=  5.11000E-03 Dt=  2.56000E-03 [y] snes_conv_reason:   11
  newton =   1 [       9] linear =   128 [      1102] cuts =  0 [   0]
  --> max chng: dpmx=   3.5541E-04 dtmpmx=   3.2913E-05

== TH FLOW =====================================================================
 Step     10 Time=  1.02300E-02 Dt=  5.12000E-03 [y] snes_conv_reason:   11
  newton =   1 [      10] linear =   137 [      1239] cuts =  0 [   0]
  --> max chng: dpmx=   1.1712E-03 dtmpmx=   6.5826E-05

== TH FLOW =====================================================================
 Step     11 Time=  2.04700E-02 Dt=  1.02400E-02 [y] snes_conv_reason:   11
  newton =   1 [      11] linear =   138 [      1377] cuts =  0 [   0]
  --> max chng: dpmx=   4.0657E-03 dtmpmx=   1.3165E-04

== TH FLOW =====================================================================
 Step     12 Time=  4.09500E-02 Dt=  2.04800E-02 [y] snes_conv_reason:   11
  newton =   1 [      12] linear =   147 [      1524] cuts =  0 [   0]
  --> max chng: dpmx=   1.4202E-02 dtmpmx=   2.6330E-04

== TH FLOW =====================================================================
 Step     13 Time=  8.19100E-02 Dt=  4.09600E-02 [y] snes_conv_reason:   11
  newton =   1 [      13] linear =   142 [      1666] cuts =  0 [   0]
  --> max chng: dpmx=   4.7243E-02 dtmpmx=   5.2661E-04

== TH FLOW =====================================================================
 Step     14 Time=  1.00000E-01 Dt=  1.80900E-02 [y] snes_conv_reason:   11
  newton =   1 [      14] linear =   129 [      1795] cuts =  0 [   0]
  --> max chng: dpmx=   2.4436E-02 dtmpmx=   2.3258E-04

== TH FLOW =====================================================================
 Step     15 Time=  1.50000E-01 Dt=  5.00000E-02 [y] snes_conv_reason:   11
  newton =   1 [      15] linear =   135 [      1930] cuts =  0 [   0]
  --> max chng: dpmx=   8.5473E-02 dtmpmx=   6.4270E-04

== TH FLOW =====================================================================
 Step     16 Time=  2.00000E-01 Dt=  5.00000E-02 [y] snes_conv_reason:   11
  newton =   1 [      16] linear =   136 [      2066] cuts =  0 [   0]
  --> max chng: dpmx=   9.6833E-02 dtmpmx=   6.4187E-04

== TH FLOW =====================================================================
 Step     17 Time=  2.50000E-01 Dt=  5.00000E-02 [y] snes_conv_reason:   11
  newton =   2 [      18] linear =   271 [      2337] cuts =  0 [   0]
  --> max chng: dpmx=   2.0413E+01 dtmpmx=   4.9167E-01

== TH FLOW =====================================================================
 Step     18 Time=  3.00000E-01 Dt=  5.00000E-02 [y] snes_conv_reason:   11
  newton =   1 [      19] linear =   111 [      2448] cuts =  0 [   0]
  --> max chng: dpmx=   9.1084E-01 dtmpmx=   1.8091E-01

== TH FLOW =====================================================================
 Step     19 Time=  3.50000E-01 Dt=  5.00000E-02 [y] snes_conv_reason:   11
  newton =   1 [      20] linear =   135 [      2583] cuts =  0 [   0]
  --> max chng: dpmx=   6.6073E-01 dtmpmx=   1.3037E-01

== TH FLOW =====================================================================
 Step     20 Time=  4.00000E-01 Dt=  5.00000E-02 [y] snes_conv_reason:   11
  newton =   1 [      21] linear =   133 [      2716] cuts =  0 [   0]
  --> max chng: dpmx=   4.4099E-01 dtmpmx=   1.0567E-01

== TH FLOW =====================================================================
 Step     21 Time=  4.50000E-01 Dt=  5.00000E-02 [y] snes_conv_reason:   11
  newton =   1 [      22] linear =   134 [      2850] cuts =  0 [   0]
  --> max chng: dpmx=   4.8107E-01 dtmpmx=   9.0225E-02

== TH FLOW =====================================================================
 Step     22 Time=  5.00000E-01 Dt=  5.00000E-02 [y] snes_conv_reason:   11
  newton =   1 [      23] linear =   130 [      2980] cuts =  0 [   0]
  --> max chng: dpmx=   5.7263E-01 dtmpmx=   7.9363E-02

== TH FLOW =====================================================================
 Step     23 Time=  5.50000E-01 Dt=  5.00000E-02 [y] snes_conv_reason:   11
  newton =   1 [      24] linear =   130 [      3110] cuts =  0 [   0]
  --> max chng: dpmx=   6.4564E-01 dtmpmx=   7.1168E-02

== TH FLOW =====================================================================
 Step     24 Time=  6.00000E-01 Dt=  5.00000E-02 [y] snes_conv_reason:   11
  newton =   1 [      25] linear =   121 [      3231] cuts =  0 [   0]
  --> max chng: dpmx=   6.8523E-01 dtmpmx=   6.4684E-02

== TH FLOW =====================================================================
 Step     25 Time=  6.50000E-01 Dt=  5.00000E-02 [y] snes_conv_reason:   11
  newton =   1 [      26] linear =   137 [      3368] cuts =  0 [   0]
  --> max chng: dpmx=   6.8171E-01 dtmpmx=   5.9389E-02

== TH FLOW =====================================================================
 Step     26 Time=  7.00000E-01 Dt=  5.00000E-02 [y] snes_conv_reason:   11
  newton =   1 [      27] linear =   125 [      3493] cuts =  0 [   0]
  --> max chng: dpmx=   6.3435E-01 dtmpmx=   5.4950E-02

== TH FLOW =====================================================================
 Step     27 Time=  7.50000E-01 Dt=  5.00000E-02 [y] snes_conv_reason:   11
  newton =   1 [      28] linear =   125 [      3618] cuts =  0 [   0]
  --> max chng: dpmx=   5.5211E-01 dtmpmx=   5.1163E-02

== TH FLOW =====================================================================
 Step     28 Time=  8.00000E-01 Dt=  5.00000E-02 [y] snes_conv_reason:   11
  newton =   1 [      29] linear =   117 [      3735] cuts =  0 [   0]
  --> max chng: dpmx=   4.4969E-01 dtmpmx=   4.7789E-02

== TH FLOW =====================================================================
 Step     29 Time=  8.50000E-01 Dt=  5.00000E-02 [y] snes_conv_reason:   11
  newton =   1 [      30] linear =   131 [      3866] cuts =  0 [   0]
  --> max chng: dpmx=   3.4385E-01 dtmpmx=   4.2398E-02

== TH FLOW =====================================================================
 Step     30 Time=  9.00000E-01 Dt=  5.00000E-02 [y] snes_conv_reason:   11
  newton =   1 [      31] linear =   134 [      4000] cuts =  0 [   0]
  --> max chng: dpmx=   2.4736E-01 dtmpmx=   3.4819E-02

== TH FLOW =====================================================================
 Step     31 Time=  9.50000E-01 Dt=  5.00000E-02 [y] snes_conv_reason:   11
  newton =   1 [      32] linear =   136 [      4136] cuts =  0 [   0]
  --> max chng: dpmx=   1.6788E-01 dtmpmx=   2.6626E-02

== TH FLOW =====================================================================
 Step     32 Time=  1.00000E+00 Dt=  5.00000E-02 [y] snes_conv_reason:   11
  newton =   1 [      33] linear =   134 [      4270] cuts =  0 [   0]
  --> max chng: dpmx=   1.0795E-01 dtmpmx=   1.9064E-02

== TH FLOW =====================================================================
 Step     33 Time=  1.05000E+00 Dt=  5.00000E-02 [y] snes_conv_reason:   11
  newton =   1 [      34] linear =   140 [      4410] cuts =  0 [   0]
  --> max chng: dpmx=   6.5828E-02 dtmpmx=   1.2840E-02

== TH FLOW =====================================================================
 Step     34 Time=  1.10000E+00 Dt=  5.00000E-02 [y] snes_conv_reason:   11
  newton =   1 [      35] linear =   141 [      4551] cuts =  0 [   0]
  --> max chng: dpmx=   3.8224E-02 dtmpmx=   8.1676E-03

== TH FLOW =====================================================================
 Step     35 Time=  1.15000E+00 Dt=  5.00000E-02 [y] snes_conv_reason:   11
  newton =   1 [      36] linear =   140 [      4691] cuts =  0 [   0]
  --> max chng: dpmx=   2.1162E-02 dtmpmx=   4.9241E-03

== TH FLOW =====================================================================
 Step     36 Time=  1.20000E+00 Dt=  5.00000E-02 [y] snes_conv_reason:   11
  newton =   1 [      37] linear =   140 [      4831] cuts =  0 [   0]
  --> max chng: dpmx=   1.1191E-02 dtmpmx=   2.8217E-03

== TH FLOW =====================================================================
 Step     37 Time=  1.25000E+00 Dt=  5.00000E-02 [y] snes_conv_reason:   11
  newton =   1 [      38] linear =   146 [      4977] cuts =  0 [   0]
  --> max chng: dpmx=   5.6614E-03 dtmpmx=   1.5400E-03

== TH FLOW =====================================================================
 Step     38 Time=  1.30000E+00 Dt=  5.00000E-02 [y] snes_conv_reason:   11
  newton =   1 [      39] linear =   143 [      5120] cuts =  0 [   0]
  --> max chng: dpmx=   2.7389E-03 dtmpmx=   8.0234E-04

== TH FLOW =====================================================================
 Step     39 Time=  1.35000E+00 Dt=  5.00000E-02 [y] snes_conv_reason:   11
  newton =   1 [      40] linear =   147 [      5267] cuts =  0 [   0]
  --> max chng: dpmx=   1.2658E-03 dtmpmx=   3.9916E-04

== TH FLOW =====================================================================
 Step     40 Time=  1.40000E+00 Dt=  5.00000E-02 [y] snes_conv_reason:   11
  newton =   1 [      41] linear =   145 [      5412] cuts =  0 [   0]
  --> max chng: dpmx=   5.5699E-04 dtmpmx=   1.8952E-04

== TH FLOW =====================================================================
 Step     41 Time=  1.45000E+00 Dt=  5.00000E-02 [y] snes_conv_reason:   11
  newton =   1 [      42] linear =   144 [      5556] cuts =  0 [   0]
  --> max chng: dpmx=   2.3148E-04 dtmpmx=   8.5625E-05

== TH FLOW =====================================================================
 Step     42 Time=  1.50000E+00 Dt=  5.00000E-02 [y] snes_conv_reason:   11
  newton =   1 [      43] linear =   143 [      5699] cuts =  0 [   0]
  --> max chng: dpmx=   8.9332E-05 dtmpmx=   3.6536E-05

== TH FLOW =====================================================================
 Step     43 Time=  1.55000E+00 Dt=  5.00000E-02 [y] snes_conv_reason:   11
  newton =   1 [      44] linear =   145 [      5844] cuts =  0 [   0]
  --> max chng: dpmx=   3.0974E-05 dtmpmx=   1.4473E-05

== TH FLOW =====================================================================
 Step     44 Time=  1.60000E+00 Dt=  5.00000E-02 [y] snes_conv_reason:   11
  newton =   1 [      45] linear =   143 [      5987] cuts =  0 [   0]
  --> max chng: dpmx=   9.0320E-06 dtmpmx=   5.1042E-06

== TH FLOW =====================================================================
 Step     45 Time=  1.65000E+00 Dt=  5.00000E-02 [y] snes_conv_reason:   11
  newton =   1 [      46] linear =   143 [      6130] cuts =  0 [   0]
  --> max chng: dpmx=   3.5014E-06 dtmpmx=   1.4062E-06

== TH FLOW =====================================================================
 Step     46 Time=  1.70000E+00 Dt=  5.00000E-02 [y] snes_conv_reason:   11
  newton =   1 [      47] linear =   132 [      6262] cuts =  0 [   0]
  --> max chng: dpmx=   3.7255E-06 dtmpmx=   4.4019E-07

== TH FLOW =====================================================================
 Step     47 Time=  1.75000E+00 Dt=  5.00000E-02 [y] snes_conv_reason:   11
  newton =   1 [      48] linear =   135 [      6397] cuts =  0 [   0]
  --> max chng: dpmx=   2.9204E-06 dtmpmx=   3.5720E-07

== TH FLOW =====================================================================
 Step     48 Time=  1.80000E+00 Dt=  5.00000E-02 [y] snes_conv_reason:   11
  newton =   1 [      49] linear =   134 [      6531] cuts =  0 [   0]
  --> max chng: dpmx=   2.0054E-06 dtmpmx=   2.8982E-07

== TH FLOW =====================================================================
 Step     49 Time=  1.85000E+00 Dt=  5.00000E-02 [y] snes_conv_reason:   11
  newton =   1 [      50] linear =   134 [      6665] cuts =  0 [   0]
  --> max chng: dpmx=   1.2784E-06 dtmpmx=   2.2357E-07

== TH FLOW =====================================================================
 Step     50 Time=  1.90000E+00 Dt=  5.00000E-02 [y] snes_conv_reason:   11
  newton =   1 [      51] linear =   139 [      6804] cuts =  0 [   0]
  --> max chng: dpmx=   7.7405E-07 dtmpmx=   1.5211E-07

== TH FLOW =====================================================================
 Step     51 Time=  1.95000E+00 Dt=  5.00000E-02 [y] snes_conv_reason:   11
  newton =   1 [      52] linear =   137 [      6941] cuts =  0 [   0]
  --> max chng: dpmx=   4.5099E-07 dtmpmx=   9.5921E-08

== TH FLOW =====================================================================
 Step     52 Time=  2.00000E+00 Dt=  5.00000E-02 [y] snes_conv_reason:   11
  newton =   1 [      53] linear =   143 [      7084] cuts =  0 [   0]
  --> max chng: dpmx=   2.5425E-07 dtmpmx=   5.7541E-08

== TH FLOW =====================================================================
 Step     53 Time=  2.05000E+00 Dt=  5.00000E-02 [y] snes_conv_reason:   11
  newton =   1 [      54] linear =   150 [      7234] cuts =  0 [   0]
  --> max chng: dpmx=   1.3947E-07 dtmpmx=   3.3233E-08

== TH FLOW =====================================================================
 Step     54 Time=  2.10000E+00 Dt=  5.00000E-02 [y] snes_conv_reason:   11
  newton =   1 [      55] linear =   142 [      7376] cuts =  0 [   0]
  --> max chng: dpmx=   7.4157E-08 dtmpmx=   1.8580E-08

== TH FLOW =====================================================================
 Step     55 Time=  2.15000E+00 Dt=  5.00000E-02 [y] snes_conv_reason:   11
  newton =   1 [      56] linear =   140 [      7516] cuts =  0 [   0]
  --> max chng: dpmx=   3.8533E-08 dtmpmx=   1.0088E-08

== TH FLOW =====================================================================
 Step     56 Time=  2.20000E+00 Dt=  5.00000E-02 [y] snes_conv_reason:   11
  newton =   1 [      57] linear =   144 [      7660] cuts =  0 [   0]
  --> max chng: dpmx=   1.9558E-08 dtmpmx=   5.3722E-09

== TH FLOW =====================================================================
 Step     57 Time=  2.25000E+00 Dt=  5.00000E-02 [y] snes_conv_reason:   11
  newton =   1 [      58] linear =   149 [      7809] cuts =  0 [   0]
  --> max chng: dpmx=   9.5461E-09 dtmpmx=   2.7030E-09

== TH FLOW =====================================================================
 Step     58 Time=  2.30000E+00 Dt=  5.00000E-02 [y] snes_conv_reason:   11
  newton =   1 [      59] linear =   145 [      7954] cuts =  0 [   0]
  --> max chng: dpmx=   4.6566E-09 dtmpmx=   1.3275E-09

== TH FLOW =====================================================================
 Step     59 Time=  2.35000E+00 Dt=  5.00000E-02 [y] snes_conv_reason:   11
  newton =   1 [      60] linear =   141 [      8095] cuts =  0 [   0]
  --> max chng: dpmx=   2.3283E-09 dtmpmx=   6.7324E-10

== TH FLOW =====================================================================
 Step     60 Time=  2.40000E+00 Dt=  5.00000E-02 [y] snes_conv_reason:   11
  newton =   1 [      61] linear =   139 [      8234] cuts =  0 [   0]
  --> max chng: dpmx=   1.0477E-09 dtmpmx=   3.1329E-10

== TH FLOW =====================================================================
 Step     61 Time=  2.45000E+00 Dt=  5.00000E-02 [y] snes_conv_reason:   11
  newton =   1 [      62] linear =   128 [      8362] cuts =  0 [   0]
  --> max chng: dpmx=   5.8208E-10 dtmpmx=   1.5511E-10

== TH FLOW =====================================================================
 Step     62 Time=  2.50000E+00 Dt=  5.00000E-02 [y] snes_conv_reason:   11
  newton =   1 [      63] linear =   132 [      8494] cuts =  0 [   0]
  --> max chng: dpmx=   3.4925E-10 dtmpmx=   1.0372E-10

== TH FLOW =====================================================================
 Step     63 Time=  2.55000E+00 Dt=  5.00000E-02 [y] snes_conv_reason:   11
  newton =   1 [      64] linear =   105 [      8599] cuts =  0 [   0]
  --> max chng: dpmx=   4.6566E-10 dtmpmx=   1.0503E-10

== TH FLOW =====================================================================
 Step     64 Time=  2.60000E+00 Dt=  5.00000E-02 [y] snes_conv_reason:   11
  newton =   1 [      65] linear =   112 [      8711] cuts =  0 [   0]
  --> max chng: dpmx=   3.4925E-10 dtmpmx=   1.1021E-10

== TH FLOW =====================================================================
 Step     65 Time=  2.65000E+00 Dt=  5.00000E-02 [y] snes_conv_reason:   11
  newton =   1 [      66] linear =    83 [      8794] cuts =  0 [   0]
  --> max chng: dpmx=   2.3283E-10 dtmpmx=   1.0025E-10

== TH FLOW =====================================================================
 Step     66 Time=  2.70000E+00 Dt=  5.00000E-02 [y] snes_conv_reason:   11
  newton =   1 [      67] linear =   135 [      8929] cuts =  0 [   0]
  --> max chng: dpmx=   3.4925E-10 dtmpmx=   1.1834E-10

== TH FLOW =====================================================================
 Step     67 Time=  2.75000E+00 Dt=  5.00000E-02 [y] snes_conv_reason:   11
  newton =   1 [      68] linear =   141 [      9070] cuts =  0 [   0]
  --> max chng: dpmx=   3.4925E-10 dtmpmx=   1.1248E-10

== TH FLOW =====================================================================
 Step     68 Time=  2.80000E+00 Dt=  5.00000E-02 [y] snes_conv_reason:   11
  newton =   1 [      69] linear =   137 [      9207] cuts =  0 [   0]
  --> max chng: dpmx=   3.4925E-10 dtmpmx=   9.9318E-11

== TH FLOW =====================================================================
 Step     69 Time=  2.85000E+00 Dt=  5.00000E-02 [y] snes_conv_reason:   11
  newton =   1 [      70] linear =   134 [      9341] cuts =  0 [   0]
  --> max chng: dpmx=   3.4925E-10 dtmpmx=   1.0067E-10

== TH FLOW =====================================================================
 Step     70 Time=  2.90000E+00 Dt=  5.00000E-02 [y] snes_conv_reason:   11
  newton =   1 [      71] linear =   127 [      9468] cuts =  0 [   0]
  --> max chng: dpmx=   3.4925E-10 dtmpmx=   1.0527E-10

== TH FLOW =====================================================================
 Step     71 Time=  2.95000E+00 Dt=  5.00000E-02 [y] snes_conv_reason:   11
  newton =   1 [      72] linear =   136 [      9604] cuts =  0 [   0]
  --> max chng: dpmx=   3.4925E-10 dtmpmx=   1.0469E-10

== TH FLOW =====================================================================
 Step     72 Time=  3.00000E+00 Dt=  5.00000E-02 [y] snes_conv_reason:   11
  newton =   1 [      73] linear =   126 [      9730] cuts =  0 [   0]
  --> max chng: dpmx=   3.4925E-10 dtmpmx=   1.0727E-10

== TH FLOW =====================================================================
 Step     73 Time=  3.05000E+00 Dt=  5.00000E-02 [y] snes_conv_reason:   11
  newton =   1 [      74] linear =   135 [      9865] cuts =  0 [   0]
  --> max chng: dpmx=   3.4925E-10 dtmpmx=   1.1710E-10

== TH FLOW =====================================================================
 Step     74 Time=  3.10000E+00 Dt=  5.00000E-02 [y] snes_conv_reason:   11
  newton =   1 [      75] linear =   120 [      9985] cuts =  0 [   0]
  --> max chng: dpmx=   3.4925E-10 dtmpmx=   1.1172E-10

== TH FLOW =====================================================================
 Step     75 Time=  3.15000E+00 Dt=  5.00000E-02 [y] snes_conv_reason:   11
  newton =   1 [      76] linear =   136 [     10121] cuts =  0 [   0]
  --> max chng: dpmx=   3.4925E-10 dtmpmx=   1.1127E-10

== TH FLOW =====================================================================
 Step     76 Time=  3.20000E+00 Dt=  5.00000E-02 [y] snes_conv_reason:   11
  newton =   1 [      77] linear =   133 [     10254] cuts =  0 [   0]
  --> max chng: dpmx=   3.4925E-10 dtmpmx=   9.3920E-11

== TH FLOW =====================================================================
 Step     77 Time=  3.25000E+00 Dt=  5.00000E-02 [y] snes_conv_reason:   11
  newton =   1 [      78] linear =   121 [     10375] cuts =  0 [   0]
  --> max chng: dpmx=   3.4925E-10 dtmpmx=   9.8655E-11

== TH FLOW =====================================================================
 Step     78 Time=  3.30000E+00 Dt=  5.00000E-02 [y] snes_conv_reason:   11
  newton =   1 [      79] linear =   148 [     10523] cuts =  0 [   0]
  --> max chng: dpmx=   3.4925E-10 dtmpmx=   9.6025E-11

== TH FLOW =====================================================================
 Step     79 Time=  3.35000E+00 Dt=  5.00000E-02 [y] snes_conv_reason:   11
  newton =   1 [      80] linear =   123 [     10646] cuts =  0 [   0]
  --> max chng: dpmx=   3.4925E-10 dtmpmx=   1.0526E-10

== TH FLOW =====================================================================
 Step     80 Time=  3.40000E+00 Dt=  5.00000E-02 [y] snes_conv_reason:   11
  newton =   1 [      81] linear =   122 [     10768] cuts =  0 [   0]
  --> max chng: dpmx=   4.6566E-10 dtmpmx=   1.0530E-10

== TH FLOW =====================================================================
 Step     81 Time=  3.45000E+00 Dt=  5.00000E-02 [y] snes_conv_reason:   11
  newton =   1 [      82] linear =   130 [     10898] cuts =  0 [   0]
  --> max chng: dpmx=   3.4925E-10 dtmpmx=   1.0409E-10

== TH FLOW =====================================================================
 Step     82 Time=  3.50000E+00 Dt=  5.00000E-02 [y] snes_conv_reason:   11
  newton =   1 [      83] linear =   149 [     11047] cuts =  0 [   0]
  --> max chng: dpmx=   3.4925E-10 dtmpmx=   1.2566E-10

== TH FLOW =====================================================================
 Step     83 Time=  3.55000E+00 Dt=  5.00000E-02 [y] snes_conv_reason:   11
  newton =   1 [      84] linear =   102 [     11149] cuts =  0 [   0]
  --> max chng: dpmx=   3.4925E-10 dtmpmx=   1.0215E-10

== TH FLOW =====================================================================
 Step     84 Time=  3.60000E+00 Dt=  5.00000E-02 [y] snes_conv_reason:   11
  newton =   1 [      85] linear =   145 [     11294] cuts =  0 [   0]
  --> max chng: dpmx=   3.4925E-10 dtmpmx=   1.0779E-10

== TH FLOW =====================================================================
 Step     85 Time=  3.65000E+00 Dt=  5.00000E-02 [y] snes_conv_reason:   11
  newton =   1 [      86] linear =    85 [     11379] cuts =  0 [   0]
  --> max chng: dpmx=   3.4925E-10 dtmpmx=   1.0578E-10

== TH FLOW =====================================================================
 Step     86 Time=  3.70000E+00 Dt=  5.00000E-02 [y] snes_conv_reason:   11
  newton =   1 [      87] linear =   127 [     11506] cuts =  0 [   0]
  --> max chng: dpmx=   3.4925E-10 dtmpmx=   1.2334E-10

== TH FLOW =====================================================================
 Step     87 Time=  3.75000E+00 Dt=  5.00000E-02 [y] snes_conv_reason:   11
  newton =   1 [      88] linear =   128 [     11634] cuts =  0 [   0]
  --> max chng: dpmx=   3.4925E-10 dtmpmx=   1.1580E-10

== TH FLOW =====================================================================
 Step     88 Time=  3.80000E+00 Dt=  5.00000E-02 [y] snes_conv_reason:   11
  newton =   1 [      89] linear =   119 [     11753] cuts =  0 [   0]
  --> max chng: dpmx=   3.4925E-10 dtmpmx=   1.0411E-10

== TH FLOW =====================================================================
 Step     89 Time=  3.85000E+00 Dt=  5.00000E-02 [y] snes_conv_reason:   11
  newton =   1 [      90] linear =    83 [     11836] cuts =  0 [   0]
  --> max chng: dpmx=   3.4925E-10 dtmpmx=   1.1964E-10

== TH FLOW =====================================================================
 Step     90 Time=  3.90000E+00 Dt=  5.00000E-02 [y] snes_conv_reason:   11
  newton =   1 [      91] linear =   137 [     11973] cuts =  0 [   0]
  --> max chng: dpmx=   3.4925E-10 dtmpmx=   1.0837E-10

== TH FLOW =====================================================================
 Step     91 Time=  3.95000E+00 Dt=  5.00000E-02 [y] snes_conv_reason:   11
  newton =   1 [      92] linear =   131 [     12104] cuts =  0 [   0]
  --> max chng: dpmx=   3.4925E-10 dtmpmx=   1.1235E-10

== TH FLOW =====================================================================
 Step     92 Time=  4.00000E+00 Dt=  5.00000E-02 [y] snes_conv_reason:   11
  newton =   1 [      93] linear =    89 [     12193] cuts =  0 [   0]
  --> max chng: dpmx=   3.4925E-10 dtmpmx=   1.0348E-10

== TH FLOW =====================================================================
 Step     93 Time=  4.05000E+00 Dt=  5.00000E-02 [y] snes_conv_reason:   11
  newton =   1 [      94] linear =    77 [     12270] cuts =  0 [   0]
  --> max chng: dpmx=   2.3283E-10 dtmpmx=   1.0119E-10

== TH FLOW =====================================================================
 Step     94 Time=  4.10000E+00 Dt=  5.00000E-02 [y] snes_conv_reason:   11
  newton =   1 [      95] linear =   135 [     12405] cuts =  0 [   0]
  --> max chng: dpmx=   3.4925E-10 dtmpmx=   1.0274E-10

== TH FLOW =====================================================================
 Step     95 Time=  4.15000E+00 Dt=  5.00000E-02 [y] snes_conv_reason:   11
  newton =   1 [      96] linear =   135 [     12540] cuts =  0 [   0]
  --> max chng: dpmx=   3.4925E-10 dtmpmx=   1.0249E-10

== TH FLOW =====================================================================
 Step     96 Time=  4.20000E+00 Dt=  5.00000E-02 [y] snes_conv_reason:   11
  newton =   1 [      97] linear =   105 [     12645] cuts =  0 [   0]
  --> max chng: dpmx=   3.4925E-10 dtmpmx=   1.1952E-10

== TH FLOW =====================================================================
 Step     97 Time=  4.25000E+00 Dt=  5.00000E-02 [y] snes_conv_reason:   11
  newton =   1 [      98] linear =   144 [     12789] cuts =  0 [   0]
  --> max chng: dpmx=   3.4925E-10 dtmpmx=   1.0936E-10

== TH FLOW =====================================================================
 Step     98 Time=  4.30000E+00 Dt=  5.00000E-02 [y] snes_conv_reason:   11
  newton =   1 [      99] linear =   143 [     12932] cuts =  0 [   0]
  --> max chng: dpmx=   4.6566E-10 dtmpmx=   1.1045E-10

== TH FLOW =====================================================================
 Step     99 Time=  4.35000E+00 Dt=  5.00000E-02 [y] snes_conv_reason:   11
  newton =   1 [     100] linear =   136 [     13068] cuts =  0 [   0]
  --> max chng: dpmx=   3.4925E-10 dtmpmx=   1.1245E-10

== TH FLOW =====================================================================
 Step    100 Time=  4.40000E+00 Dt=  5.00000E-02 [y] snes_conv_reason:   11
  newton =   1 [     101] linear =   121 [     13189] cuts =  0 [   0]
  --> max chng: dpmx=   3.4925E-10 dtmpmx=   9.5696E-11

== TH FLOW =====================================================================
 Step    101 Time=  4.45000E+00 Dt=  5.00000E-02 [y] snes_conv_reason:   11
  newton =   1 [     102] linear =   104 [     13293] cuts =  0 [   0]
  --> max chng: dpmx=   2.3283E-10 dtmpmx=   1.2065E-10

== TH FLOW =====================================================================
 Step    102 Time=  4.50000E+00 Dt=  5.00000E-02 [y] snes_conv_reason:   11
  newton =   1 [     103] linear =    83 [     13376] cuts =  0 [   0]
  --> max chng: dpmx=   2.3283E-10 dtmpmx=   1.0894E-10

== TH FLOW =====================================================================
 Step    103 Time=  4.55000E+00 Dt=  5.00000E-02 [y] snes_conv_reason:   11
  newton =   1 [     104] linear =   141 [     13517] cuts =  0 [   0]
  --> max chng: dpmx=   3.4925E-10 dtmpmx=   1.0873E-10

== TH FLOW =====================================================================
 Step    104 Time=  4.60000E+00 Dt=  5.00000E-02 [y] snes_conv_reason:   11
  newton =   1 [     105] linear =   140 [     13657] cuts =  0 [   0]
  --> max chng: dpmx=   3.4925E-10 dtmpmx=   1.2530E-10

== TH FLOW =====================================================================
 Step    105 Time=  4.65000E+00 Dt=  5.00000E-02 [y] snes_conv_reason:   11
  newton =   1 [     106] linear =   129 [     13786] cuts =  0 [   0]
  --> max chng: dpmx=   3.4925E-10 dtmpmx=   1.0819E-10

== TH FLOW =====================================================================
 Step    106 Time=  4.70000E+00 Dt=  5.00000E-02 [y] snes_conv_reason:   11
  newton =   1 [     107] linear =   131 [     13917] cuts =  0 [   0]
  --> max chng: dpmx=   3.4925E-10 dtmpmx=   1.0671E-10

== TH FLOW =====================================================================
 Step    107 Time=  4.75000E+00 Dt=  5.00000E-02 [y] snes_conv_reason:   11
  newton =   1 [     108] linear =   143 [     14060] cuts =  0 [   0]
  --> max chng: dpmx=   3.4925E-10 dtmpmx=   1.0729E-10

== TH FLOW =====================================================================
 Step    108 Time=  4.80000E+00 Dt=  5.00000E-02 [y] snes_conv_reason:   11
  newton =   1 [     109] linear =    94 [     14154] cuts =  0 [   0]
  --> max chng: dpmx=   3.4925E-10 dtmpmx=   1.1108E-10

== TH FLOW =====================================================================
 Step    109 Time=  4.85000E+00 Dt=  5.00000E-02 [y] snes_conv_reason:   11
  newton =   1 [     110] linear =    85 [     14239] cuts =  0 [   0]
  --> max chng: dpmx=   2.3283E-10 dtmpmx=   9.4881E-11

== TH FLOW =====================================================================
 Step    110 Time=  4.90000E+00 Dt=  5.00000E-02 [y] snes_conv_reason:   11
  newton =   1 [     111] linear =    93 [     14332] cuts =  0 [   0]
  --> max chng: dpmx=   3.4925E-10 dtmpmx=   1.0245E-10

== TH FLOW =====================================================================
 Step    111 Time=  4.95000E+00 Dt=  5.00000E-02 [y] snes_conv_reason:   11
  newton =   1 [     112] linear =   132 [     14464] cuts =  0 [   0]
  --> max chng: dpmx=   3.4925E-10 dtmpmx=   1.1239E-10

== TH FLOW =====================================================================
 Step    112 Time=  5.00000E+00 Dt=  5.00000E-02 [y] snes_conv_reason:   11
  newton =   1 [     113] linear =   135 [     14599] cuts =  0 [   0]
  --> max chng: dpmx=   3.4925E-10 dtmpmx=   1.1253E-10

== TH FLOW =====================================================================
 Step    113 Time=  5.05000E+00 Dt=  5.00000E-02 [y] snes_conv_reason:   11
  newton =   1 [     114] linear =   114 [     14713] cuts =  0 [   0]
  --> max chng: dpmx=   3.4925E-10 dtmpmx=   1.0471E-10

== TH FLOW =====================================================================
 Step    114 Time=  5.10000E+00 Dt=  5.00000E-02 [y] snes_conv_reason:   11
  newton =   1 [     115] linear =   143 [     14856] cuts =  0 [   0]
  --> max chng: dpmx=   3.4925E-10 dtmpmx=   1.0606E-10

== TH FLOW =====================================================================
 Step    115 Time=  5.15000E+00 Dt=  5.00000E-02 [y] snes_conv_reason:   11
  newton =   1 [     116] linear =   138 [     14994] cuts =  0 [   0]
  --> max chng: dpmx=   3.4925E-10 dtmpmx=   9.9428E-11

== TH FLOW =====================================================================
 Step    116 Time=  5.20000E+00 Dt=  5.00000E-02 [y] snes_conv_reason:   11
  newton =   1 [     117] linear =   116 [     15110] cuts =  0 [   0]
  --> max chng: dpmx=   3.4925E-10 dtmpmx=   1.0998E-10

== TH FLOW =====================================================================
 Step    117 Time=  5.25000E+00 Dt=  5.00000E-02 [y] snes_conv_reason:   11
  newton =   1 [     118] linear =   120 [     15230] cuts =  0 [   0]
  --> max chng: dpmx=   2.3283E-10 dtmpmx=   1.0738E-10

== TH FLOW =====================================================================
 Step    118 Time=  5.30000E+00 Dt=  5.00000E-02 [y] snes_conv_reason:   11
  newton =   1 [     119] linear =   130 [     15360] cuts =  0 [   0]
  --> max chng: dpmx=   3.4925E-10 dtmpmx=   1.1371E-10

== TH FLOW =====================================================================
 Step    119 Time=  5.35000E+00 Dt=  5.00000E-02 [y] snes_conv_reason:   11
  newton =   1 [     120] linear =   123 [     15483] cuts =  0 [   0]
  --> max chng: dpmx=   3.4925E-10 dtmpmx=   1.1434E-10

== TH FLOW =====================================================================
 Step    120 Time=  5.40000E+00 Dt=  5.00000E-02 [y] snes_conv_reason:   11
  newton =   1 [     121] linear =   112 [     15595] cuts =  0 [   0]
  --> max chng: dpmx=   3.4925E-10 dtmpmx=   1.1670E-10

== TH FLOW =====================================================================
 Step    121 Time=  5.45000E+00 Dt=  5.00000E-02 [y] snes_conv_reason:   11
  newton =   1 [     122] linear =   138 [     15733] cuts =  0 [   0]
  --> max chng: dpmx=   3.4925E-10 dtmpmx=   1.1385E-10

== TH FLOW =====================================================================
 Step    122 Time=  5.50000E+00 Dt=  5.00000E-02 [y] snes_conv_reason:   11
  newton =   1 [     123] linear =   129 [     15862] cuts =  0 [   0]
  --> max chng: dpmx=   3.4925E-10 dtmpmx=   1.1461E-10

== TH FLOW =====================================================================
 Step    123 Time=  5.55000E+00 Dt=  5.00000E-02 [y] snes_conv_reason:   11
  newton =   1 [     124] linear =   133 [     15995] cuts =  0 [   0]
  --> max chng: dpmx=   3.4925E-10 dtmpmx=   1.0000E-10

== TH FLOW =====================================================================
 Step    124 Time=  5.60000E+00 Dt=  5.00000E-02 [y] snes_conv_reason:   11
  newton =   1 [     125] linear =   123 [     16118] cuts =  0 [   0]
  --> max chng: dpmx=   3.4925E-10 dtmpmx=   1.1336E-10

== TH FLOW =====================================================================
 Step    125 Time=  5.65000E+00 Dt=  5.00000E-02 [y] snes_conv_reason:   11
  newton =   1 [     126] linear =   132 [     16250] cuts =  0 [   0]
  --> max chng: dpmx=   3.4925E-10 dtmpmx=   1.0550E-10

== TH FLOW =====================================================================
 Step    126 Time=  5.70000E+00 Dt=  5.00000E-02 [y] snes_conv_reason:   11
  newton =   1 [     127] linear =   123 [     16373] cuts =  0 [   0]
  --> max chng: dpmx=   3.4925E-10 dtmpmx=   9.6616E-11

== TH FLOW =====================================================================
 Step    127 Time=  5.75000E+00 Dt=  5.00000E-02 [y] snes_conv_reason:   11
  newton =   1 [     128] linear =   132 [     16505] cuts =  0 [   0]
  --> max chng: dpmx=   3.4925E-10 dtmpmx=   9.9115E-11

== TH FLOW =====================================================================
 Step    128 Time=  5.80000E+00 Dt=  5.00000E-02 [y] snes_conv_reason:   11
  newton =   1 [     129] linear =   119 [     16624] cuts =  0 [   0]
  --> max chng: dpmx=   2.3283E-10 dtmpmx=   1.0518E-10

== TH FLOW =====================================================================
 Step    129 Time=  5.85000E+00 Dt=  5.00000E-02 [y] snes_conv_reason:   11
  newton =   1 [     130] linear =    81 [     16705] cuts =  0 [   0]
  --> max chng: dpmx=   3.4925E-10 dtmpmx=   1.2357E-10

== TH FLOW =====================================================================
 Step    130 Time=  5.90000E+00 Dt=  5.00000E-02 [y] snes_conv_reason:   11
  newton =   1 [     131] linear =   104 [     16809] cuts =  0 [   0]
  --> max chng: dpmx=   3.4925E-10 dtmpmx=   1.1062E-10

== TH FLOW =====================================================================
 Step    131 Time=  5.95000E+00 Dt=  5.00000E-02 [y] snes_conv_reason:   11
  newton =   1 [     132] linear =   131 [     16940] cuts =  0 [   0]
  --> max chng: dpmx=   3.4925E-10 dtmpmx=   9.7863E-11

== TH FLOW =====================================================================
 Step    132 Time=  6.00000E+00 Dt=  5.00000E-02 [y] snes_conv_reason:   11
  newton =   1 [     133] linear =   111 [     17051] cuts =  0 [   0]
  --> max chng: dpmx=   3.4925E-10 dtmpmx=   9.9279E-11

== TH FLOW =====================================================================
 Step    133 Time=  6.05000E+00 Dt=  5.00000E-02 [y] snes_conv_reason:   11
  newton =   1 [     134] linear =   111 [     17162] cuts =  0 [   0]
  --> max chng: dpmx=   3.4925E-10 dtmpmx=   1.0751E-10

== TH FLOW =====================================================================
 Step    134 Time=  6.10000E+00 Dt=  5.00000E-02 [y] snes_conv_reason:   11
  newton =   1 [     135] linear =   124 [     17286] cuts =  0 [   0]
  --> max chng: dpmx=   3.4925E-10 dtmpmx=   1.1928E-10

== TH FLOW =====================================================================
 Step    135 Time=  6.15000E+00 Dt=  5.00000E-02 [y] snes_conv_reason:   11
  newton =   1 [     136] linear =   131 [     17417] cuts =  0 [   0]
  --> max chng: dpmx=   3.4925E-10 dtmpmx=   1.1068E-10

== TH FLOW =====================================================================
 Step    136 Time=  6.20000E+00 Dt=  5.00000E-02 [y] snes_conv_reason:   11
  newton =   1 [     137] linear =   127 [     17544] cuts =  0 [   0]
  --> max chng: dpmx=   2.3283E-10 dtmpmx=   1.1752E-10

== TH FLOW =====================================================================
 Step    137 Time=  6.25000E+00 Dt=  5.00000E-02 [y] snes_conv_reason:   11
  newton =   1 [     138] linear =   140 [     17684] cuts =  0 [   0]
  --> max chng: dpmx=   3.4925E-10 dtmpmx=   1.3184E-10

== TH FLOW =====================================================================
 Step    138 Time=  6.30000E+00 Dt=  5.00000E-02 [y] snes_conv_reason:   11
  newton =   1 [     139] linear =   135 [     17819] cuts =  0 [   0]
  --> max chng: dpmx=   2.3283E-10 dtmpmx=   1.0461E-10

== TH FLOW =====================================================================
 Step    139 Time=  6.35000E+00 Dt=  5.00000E-02 [y] snes_conv_reason:   11
  newton =   1 [     140] linear =   113 [     17932] cuts =  0 [   0]
  --> max chng: dpmx=   3.4925E-10 dtmpmx=   1.0433E-10

== TH FLOW =====================================================================
 Step    140 Time=  6.40000E+00 Dt=  5.00000E-02 [y] snes_conv_reason:   11
  newton =   1 [     141] linear =   119 [     18051] cuts =  0 [   0]
  --> max chng: dpmx=   3.4925E-10 dtmpmx=   1.0791E-10

== TH FLOW =====================================================================
 Step    141 Time=  6.45000E+00 Dt=  5.00000E-02 [y] snes_conv_reason:   11
  newton =   1 [     142] linear =   125 [     18176] cuts =  0 [   0]
  --> max chng: dpmx=   3.4925E-10 dtmpmx=   9.8774E-11

== TH FLOW =====================================================================
 Step    142 Time=  6.50000E+00 Dt=  5.00000E-02 [y] snes_conv_reason:   11
  newton =   1 [     143] linear =   136 [     18312] cuts =  0 [   0]
  --> max chng: dpmx=   3.4925E-10 dtmpmx=   9.9361E-11

== TH FLOW =====================================================================
 Step    143 Time=  6.55000E+00 Dt=  5.00000E-02 [y] snes_conv_reason:   11
  newton =   1 [     144] linear =   142 [     18454] cuts =  0 [   0]
  --> max chng: dpmx=   3.4925E-10 dtmpmx=   1.1805E-10

== TH FLOW =====================================================================
 Step    144 Time=  6.60000E+00 Dt=  5.00000E-02 [y] snes_conv_reason:   11
  newton =   1 [     145] linear =   141 [     18595] cuts =  0 [   0]
  --> max chng: dpmx=   3.4925E-10 dtmpmx=   9.8227E-11

== TH FLOW =====================================================================
 Step    145 Time=  6.65000E+00 Dt=  5.00000E-02 [y] snes_conv_reason:   11
  newton =   1 [     146] linear =   154 [     18749] cuts =  0 [   0]
  --> max chng: dpmx=   4.6566E-10 dtmpmx=   1.0564E-10

== TH FLOW =====================================================================
 Step    146 Time=  6.70000E+00 Dt=  5.00000E-02 [y] snes_conv_reason:   11
  newton =   1 [     147] linear =   137 [     18886] cuts =  0 [   0]
  --> max chng: dpmx=   3.4925E-10 dtmpmx=   9.8698E-11

== TH FLOW =====================================================================
 Step    147 Time=  6.75000E+00 Dt=  5.00000E-02 [y] snes_conv_reason:   11
  newton =   1 [     148] linear =   125 [     19011] cuts =  0 [   0]
  --> max chng: dpmx=   3.4925E-10 dtmpmx=   1.1647E-10

== TH FLOW =====================================================================
 Step    148 Time=  6.80000E+00 Dt=  5.00000E-02 [y] snes_conv_reason:   11
  newton =   1 [     149] linear =   145 [     19156] cuts =  0 [   0]
  --> max chng: dpmx=   4.6566E-10 dtmpmx=   1.0090E-10

== TH FLOW =====================================================================
 Step    149 Time=  6.85000E+00 Dt=  5.00000E-02 [y] snes_conv_reason:   11
  newton =   1 [     150] linear =   119 [     19275] cuts =  0 [   0]
  --> max chng: dpmx=   3.4925E-10 dtmpmx=   1.2788E-10

== TH FLOW =====================================================================
 Step    150 Time=  6.90000E+00 Dt=  5.00000E-02 [y] snes_conv_reason:   11
  newton =   1 [     151] linear =   134 [     19409] cuts =  0 [   0]
  --> max chng: dpmx=   3.4925E-10 dtmpmx=   1.0897E-10

== TH FLOW =====================================================================
 Step    151 Time=  6.95000E+00 Dt=  5.00000E-02 [y] snes_conv_reason:   11
  newton =   1 [     152] linear =   136 [     19545] cuts =  0 [   0]
  --> max chng: dpmx=   4.6566E-10 dtmpmx=   1.0972E-10

== TH FLOW =====================================================================
 Step    152 Time=  7.00000E+00 Dt=  5.00000E-02 [y] snes_conv_reason:   11
  newton =   1 [     153] linear =   144 [     19689] cuts =  0 [   0]
  --> max chng: dpmx=   2.3283E-10 dtmpmx=   1.1142E-10

== TH FLOW =====================================================================
 Step    153 Time=  7.05000E+00 Dt=  5.00000E-02 [y] snes_conv_reason:   11
  newton =   1 [     154] linear =   121 [     19810] cuts =  0 [   0]
  --> max chng: dpmx=   2.3283E-10 dtmpmx=   9.8540E-11

== TH FLOW =====================================================================
 Step    154 Time=  7.10000E+00 Dt=  5.00000E-02 [y] snes_conv_reason:   11
  newton =   1 [     155] linear =   141 [     19951] cuts =  0 [   0]
  --> max chng: dpmx=   2.3283E-10 dtmpmx=   1.0843E-10

== TH FLOW =====================================================================
 Step    155 Time=  7.15000E+00 Dt=  5.00000E-02 [y] snes_conv_reason:   11
  newton =   1 [     156] linear =   148 [     20099] cuts =  0 [   0]
  --> max chng: dpmx=   4.6566E-10 dtmpmx=   1.0774E-10

== TH FLOW =====================================================================
 Step    156 Time=  7.20000E+00 Dt=  5.00000E-02 [y] snes_conv_reason:   11
  newton =   1 [     157] linear =   121 [     20220] cuts =  0 [   0]
  --> max chng: dpmx=   3.4925E-10 dtmpmx=   1.1593E-10

== TH FLOW =====================================================================
 Step    157 Time=  7.25000E+00 Dt=  5.00000E-02 [y] snes_conv_reason:   11
  newton =   1 [     158] linear =   136 [     20356] cuts =  0 [   0]
  --> max chng: dpmx=   3.4925E-10 dtmpmx=   1.0406E-10

== TH FLOW =====================================================================
 Step    158 Time=  7.30000E+00 Dt=  5.00000E-02 [y] snes_conv_reason:   11
  newton =   1 [     159] linear =   147 [     20503] cuts =  0 [   0]
  --> max chng: dpmx=   3.4925E-10 dtmpmx=   1.0108E-10

== TH FLOW =====================================================================
 Step    159 Time=  7.35000E+00 Dt=  5.00000E-02 [y] snes_conv_reason:   11
  newton =   1 [     160] linear =   127 [     20630] cuts =  0 [   0]
  --> max chng: dpmx=   3.4925E-10 dtmpmx=   1.0193E-10

== TH FLOW =====================================================================
 Step    160 Time=  7.40000E+00 Dt=  5.00000E-02 [y] snes_conv_reason:   11
  newton =   1 [     161] linear =    84 [     20714] cuts =  0 [   0]
  --> max chng: dpmx=   2.3283E-10 dtmpmx=   1.3119E-10

== TH FLOW =====================================================================
 Step    161 Time=  7.45000E+00 Dt=  5.00000E-02 [y] snes_conv_reason:   11
  newton =   1 [     162] linear =   119 [     20833] cuts =  0 [   0]
  --> max chng: dpmx=   3.4925E-10 dtmpmx=   1.1219E-10

== TH FLOW =====================================================================
 Step    162 Time=  7.50000E+00 Dt=  5.00000E-02 [y] snes_conv_reason:   11
  newton =   1 [     163] linear =   122 [     20955] cuts =  0 [   0]
  --> max chng: dpmx=   3.4925E-10 dtmpmx=   9.9913E-11

== TH FLOW =====================================================================
 Step    163 Time=  7.55000E+00 Dt=  5.00000E-02 [y] snes_conv_reason:   11
  newton =   1 [     164] linear =   142 [     21097] cuts =  0 [   0]
  --> max chng: dpmx=   3.4925E-10 dtmpmx=   1.0185E-10

== TH FLOW =====================================================================
 Step    164 Time=  7.60000E+00 Dt=  5.00000E-02 [y] snes_conv_reason:   11
  newton =   1 [     165] linear =   100 [     21197] cuts =  0 [   0]
  --> max chng: dpmx=   3.4925E-10 dtmpmx=   1.0705E-10

== TH FLOW =====================================================================
 Step    165 Time=  7.65000E+00 Dt=  5.00000E-02 [y] snes_conv_reason:   11
  newton =   1 [     166] linear =   124 [     21321] cuts =  0 [   0]
  --> max chng: dpmx=   3.4925E-10 dtmpmx=   1.0858E-10

== TH FLOW =====================================================================
 Step    166 Time=  7.70000E+00 Dt=  5.00000E-02 [y] snes_conv_reason:   11
  newton =   1 [     167] linear =    75 [     21396] cuts =  0 [   0]
  --> max chng: dpmx=   3.4925E-10 dtmpmx=   1.1264E-10

== TH FLOW =====================================================================
 Step    167 Time=  7.75000E+00 Dt=  5.00000E-02 [y] snes_conv_reason:   11
  newton =   1 [     168] linear =   129 [     21525] cuts =  0 [   0]
  --> max chng: dpmx=   4.6566E-10 dtmpmx=   1.1410E-10

== TH FLOW =====================================================================
 Step    168 Time=  7.80000E+00 Dt=  5.00000E-02 [y] snes_conv_reason:   11
  newton =   1 [     169] linear =   139 [     21664] cuts =  0 [   0]
  --> max chng: dpmx=   2.3283E-10 dtmpmx=   1.0067E-10

== TH FLOW =====================================================================
 Step    169 Time=  7.85000E+00 Dt=  5.00000E-02 [y] snes_conv_reason:   11
  newton =   1 [     170] linear =   127 [     21791] cuts =  0 [   0]
  --> max chng: dpmx=   3.4925E-10 dtmpmx=   1.2170E-10

== TH FLOW =====================================================================
 Step    170 Time=  7.90000E+00 Dt=  5.00000E-02 [y] snes_conv_reason:   11
  newton =   1 [     171] linear =   139 [     21930] cuts =  0 [   0]
  --> max chng: dpmx=   3.4925E-10 dtmpmx=   1.0971E-10

== TH FLOW =====================================================================
 Step    171 Time=  7.95000E+00 Dt=  5.00000E-02 [y] snes_conv_reason:   11
  newton =   1 [     172] linear =   104 [     22034] cuts =  0 [   0]
  --> max chng: dpmx=   3.4925E-10 dtmpmx=   1.0047E-10

== TH FLOW =====================================================================
 Step    172 Time=  8.00000E+00 Dt=  5.00000E-02 [y] snes_conv_reason:   11
  newton =   1 [     173] linear =   116 [     22150] cuts =  0 [   0]
  --> max chng: dpmx=   3.4925E-10 dtmpmx=   1.0935E-10

== TH FLOW =====================================================================
 Step    173 Time=  8.05000E+00 Dt=  5.00000E-02 [y] snes_conv_reason:   11
  newton =   1 [     174] linear =   143 [     22293] cuts =  0 [   0]
  --> max chng: dpmx=   3.4925E-10 dtmpmx=   9.7009E-11

== TH FLOW =====================================================================
 Step    174 Time=  8.10000E+00 Dt=  5.00000E-02 [y] snes_conv_reason:   11
  newton =   1 [     175] linear =    94 [     22387] cuts =  0 [   0]
  --> max chng: dpmx=   3.4925E-10 dtmpmx=   1.0027E-10

== TH FLOW =====================================================================
 Step    175 Time=  8.15000E+00 Dt=  5.00000E-02 [y] snes_conv_reason:   11
  newton =   1 [     176] linear =   128 [     22515] cuts =  0 [   0]
  --> max chng: dpmx=   3.4925E-10 dtmpmx=   9.9968E-11

== TH FLOW =====================================================================
 Step    176 Time=  8.20000E+00 Dt=  5.00000E-02 [y] snes_conv_reason:   11
  newton =   1 [     177] linear =   139 [     22654] cuts =  0 [   0]
  --> max chng: dpmx=   3.4925E-10 dtmpmx=   1.1510E-10

== TH FLOW =====================================================================
 Step    177 Time=  8.25000E+00 Dt=  5.00000E-02 [y] snes_conv_reason:   11
  newton =   1 [     178] linear =   125 [     22779] cuts =  0 [   0]
  --> max chng: dpmx=   3.4925E-10 dtmpmx=   1.1122E-10

== TH FLOW =====================================================================
 Step    178 Time=  8.30000E+00 Dt=  5.00000E-02 [y] snes_conv_reason:   11
  newton =   1 [     179] linear =   119 [     22898] cuts =  0 [   0]
  --> max chng: dpmx=   3.4925E-10 dtmpmx=   1.0687E-10

== TH FLOW =====================================================================
 Step    179 Time=  8.35000E+00 Dt=  5.00000E-02 [y] snes_conv_reason:   11
  newton =   1 [     180] linear =   133 [     23031] cuts =  0 [   0]
  --> max chng: dpmx=   3.4925E-10 dtmpmx=   1.1367E-10

== TH FLOW =====================================================================
 Step    180 Time=  8.40000E+00 Dt=  5.00000E-02 [y] snes_conv_reason:   11
  newton =   1 [     181] linear =   125 [     23156] cuts =  0 [   0]
  --> max chng: dpmx=   3.4925E-10 dtmpmx=   9.9822E-11

== TH FLOW =====================================================================
 Step    181 Time=  8.45000E+00 Dt=  5.00000E-02 [y] snes_conv_reason:   11
  newton =   1 [     182] linear =   128 [     23284] cuts =  0 [   0]
  --> max chng: dpmx=   3.4925E-10 dtmpmx=   1.0838E-10

== TH FLOW =====================================================================
 Step    182 Time=  8.50000E+00 Dt=  5.00000E-02 [y] snes_conv_reason:   11
  newton =   1 [     183] linear =   143 [     23427] cuts =  0 [   0]
  --> max chng: dpmx=   3.4925E-10 dtmpmx=   1.0020E-10

== TH FLOW =====================================================================
 Step    183 Time=  8.55000E+00 Dt=  5.00000E-02 [y] snes_conv_reason:   11
  newton =   1 [     184] linear =   143 [     23570] cuts =  0 [   0]
  --> max chng: dpmx=   4.6566E-10 dtmpmx=   1.0792E-10

== TH FLOW =====================================================================
 Step    184 Time=  8.60000E+00 Dt=  5.00000E-02 [y] snes_conv_reason:   11
  newton =   1 [     185] linear =   143 [     23713] cuts =  0 [   0]
  --> max chng: dpmx=   4.6566E-10 dtmpmx=   1.0109E-10

== TH FLOW =====================================================================
 Step    185 Time=  8.65000E+00 Dt=  5.00000E-02 [y] snes_conv_reason:   11
  newton =   1 [     186] linear =   137 [     23850] cuts =  0 [   0]
  --> max chng: dpmx=   2.3283E-10 dtmpmx=   9.7629E-11

== TH FLOW =====================================================================
 Step    186 Time=  8.70000E+00 Dt=  5.00000E-02 [y] snes_conv_reason:   11
  newton =   1 [     187] linear =   128 [     23978] cuts =  0 [   0]
  --> max chng: dpmx=   3.4925E-10 dtmpmx=   1.0335E-10

== TH FLOW =====================================================================
 Step    187 Time=  8.75000E+00 Dt=  5.00000E-02 [y] snes_conv_reason:   11
  newton =   1 [     188] linear =   143 [     24121] cuts =  0 [   0]
  --> max chng: dpmx=   3.4925E-10 dtmpmx=   1.1840E-10

== TH FLOW =====================================================================
 Step    188 Time=  8.80000E+00 Dt=  5.00000E-02 [y] snes_conv_reason:   11
  newton =   1 [     189] linear =   137 [     24258] cuts =  0 [   0]
  --> max chng: dpmx=   3.4925E-10 dtmpmx=   1.0231E-10

== TH FLOW =====================================================================
 Step    189 Time=  8.85000E+00 Dt=  5.00000E-02 [y] snes_conv_reason:   11
  newton =   1 [     190] linear =   137 [     24395] cuts =  0 [   0]
  --> max chng: dpmx=   3.4925E-10 dtmpmx=   9.8709E-11

== TH FLOW =====================================================================
 Step    190 Time=  8.90000E+00 Dt=  5.00000E-02 [y] snes_conv_reason:   11
  newton =   1 [     191] linear =   107 [     24502] cuts =  0 [   0]
  --> max chng: dpmx=   3.4925E-10 dtmpmx=   9.7289E-11

== TH FLOW =====================================================================
 Step    191 Time=  8.95000E+00 Dt=  5.00000E-02 [y] snes_conv_reason:   11
  newton =   1 [     192] linear =   148 [     24650] cuts =  0 [   0]
  --> max chng: dpmx=   3.4925E-10 dtmpmx=   9.4076E-11

== TH FLOW =====================================================================
 Step    192 Time=  9.00000E+00 Dt=  5.00000E-02 [y] snes_conv_reason:   11
  newton =   1 [     193] linear =    94 [     24744] cuts =  0 [   0]
  --> max chng: dpmx=   3.4925E-10 dtmpmx=   1.0222E-10

== TH FLOW =====================================================================
 Step    193 Time=  9.05000E+00 Dt=  5.00000E-02 [y] snes_conv_reason:   11
  newton =   1 [     194] linear =   141 [     24885] cuts =  0 [   0]
  --> max chng: dpmx=   3.4925E-10 dtmpmx=   1.0891E-10

== TH FLOW =====================================================================
 Step    194 Time=  9.10000E+00 Dt=  5.00000E-02 [y] snes_conv_reason:   11
  newton =   1 [     195] linear =   126 [     25011] cuts =  0 [   0]
  --> max chng: dpmx=   3.4925E-10 dtmpmx=   1.0722E-10

== TH FLOW =====================================================================
 Step    195 Time=  9.15000E+00 Dt=  5.00000E-02 [y] snes_conv_reason:   11
  newton =   1 [     196] linear =   130 [     25141] cuts =  0 [   0]
  --> max chng: dpmx=   3.4925E-10 dtmpmx=   1.0298E-10

== TH FLOW =====================================================================
 Step    196 Time=  9.20000E+00 Dt=  5.00000E-02 [y] snes_conv_reason:   11
  newton =   1 [     197] linear =   132 [     25273] cuts =  0 [   0]
  --> max chng: dpmx=   3.4925E-10 dtmpmx=   1.0360E-10

== TH FLOW =====================================================================
 Step    197 Time=  9.25000E+00 Dt=  5.00000E-02 [y] snes_conv_reason:   11
  newton =   1 [     198] linear =   138 [     25411] cuts =  0 [   0]
  --> max chng: dpmx=   3.4925E-10 dtmpmx=   9.9048E-11

== TH FLOW =====================================================================
 Step    198 Time=  9.30000E+00 Dt=  5.00000E-02 [y] snes_conv_reason:   11
  newton =   1 [     199] linear =   146 [     25557] cuts =  0 [   0]
  --> max chng: dpmx=   4.6566E-10 dtmpmx=   1.1100E-10

== TH FLOW =====================================================================
 Step    199 Time=  9.35000E+00 Dt=  5.00000E-02 [y] snes_conv_reason:   11
  newton =   1 [     200] linear =   137 [     25694] cuts =  0 [   0]
  --> max chng: dpmx=   3.4925E-10 dtmpmx=   1.0214E-10

== TH FLOW =====================================================================
 Step    200 Time=  9.40000E+00 Dt=  5.00000E-02 [y] snes_conv_reason:   11
  newton =   1 [     201] linear =   134 [     25828] cuts =  0 [   0]
  --> max chng: dpmx=   3.4925E-10 dtmpmx=   1.2374E-10

== TH FLOW =====================================================================
 Step    201 Time=  9.45000E+00 Dt=  5.00000E-02 [y] snes_conv_reason:   11
  newton =   1 [     202] linear =   143 [     25971] cuts =  0 [   0]
  --> max chng: dpmx=   3.4925E-10 dtmpmx=   1.0778E-10

== TH FLOW =====================================================================
 Step    202 Time=  9.50000E+00 Dt=  5.00000E-02 [y] snes_conv_reason:   11
  newton =   1 [     203] linear =   135 [     26106] cuts =  0 [   0]
  --> max chng: dpmx=   3.4925E-10 dtmpmx=   9.5364E-11

== TH FLOW =====================================================================
 Step    203 Time=  9.55000E+00 Dt=  5.00000E-02 [y] snes_conv_reason:   11
  newton =   1 [     204] linear =   122 [     26228] cuts =  0 [   0]
  --> max chng: dpmx=   3.4925E-10 dtmpmx=   1.0752E-10

== TH FLOW =====================================================================
 Step    204 Time=  9.60000E+00 Dt=  5.00000E-02 [y] snes_conv_reason:   11
  newton =   1 [     205] linear =   134 [     26362] cuts =  0 [   0]
  --> max chng: dpmx=   3.4925E-10 dtmpmx=   1.0812E-10

== TH FLOW =====================================================================
 Step    205 Time=  9.65000E+00 Dt=  5.00000E-02 [y] snes_conv_reason:   11
  newton =   1 [     206] linear =   136 [     26498] cuts =  0 [   0]
  --> max chng: dpmx=   3.4925E-10 dtmpmx=   1.0107E-10

== TH FLOW =====================================================================
 Step    206 Time=  9.70000E+00 Dt=  5.00000E-02 [y] snes_conv_reason:   11
  newton =   1 [     207] linear =   147 [     26645] cuts =  0 [   0]
  --> max chng: dpmx=   4.6566E-10 dtmpmx=   1.0482E-10

== TH FLOW =====================================================================
 Step    207 Time=  9.75000E+00 Dt=  5.00000E-02 [y] snes_conv_reason:   11
  newton =   1 [     208] linear =   142 [     26787] cuts =  0 [   0]
  --> max chng: dpmx=   3.4925E-10 dtmpmx=   1.1406E-10

== TH FLOW =====================================================================
 Step    208 Time=  9.80000E+00 Dt=  5.00000E-02 [y] snes_conv_reason:   11
  newton =   1 [     209] linear =   131 [     26918] cuts =  0 [   0]
  --> max chng: dpmx=   3.4925E-10 dtmpmx=   1.1596E-10

== TH FLOW =====================================================================
 Step    209 Time=  9.85000E+00 Dt=  5.00000E-02 [y] snes_conv_reason:   11
  newton =   1 [     210] linear =   132 [     27050] cuts =  0 [   0]
  --> max chng: dpmx=   3.4925E-10 dtmpmx=   1.1062E-10

== TH FLOW =====================================================================
 Step    210 Time=  9.90000E+00 Dt=  5.00000E-02 [y] snes_conv_reason:   11
  newton =   1 [     211] linear =   116 [     27166] cuts =  0 [   0]
  --> max chng: dpmx=   3.4925E-10 dtmpmx=   1.1278E-10

== TH FLOW =====================================================================
 Step    211 Time=  9.95000E+00 Dt=  5.00000E-02 [y] snes_conv_reason:   11
  newton =   1 [     212] linear =    98 [     27264] cuts =  0 [   0]
  --> max chng: dpmx=   3.4925E-10 dtmpmx=   1.2090E-10

== TH FLOW =====================================================================
 Step    212 Time=  1.00000E+01 Dt=  5.00000E-02 [y] snes_conv_reason:   11
  newton =   1 [     213] linear =   130 [     27394] cuts =  0 [   0]
  --> max chng: dpmx=   2.3283E-10 dtmpmx=   1.0267E-10

== TH FLOW =====================================================================
 Step    213 Time=  1.00500E+01 Dt=  5.00000E-02 [y] snes_conv_reason:   11
  newton =   1 [     214] linear =   128 [     27522] cuts =  0 [   0]
  --> max chng: dpmx=   3.4925E-10 dtmpmx=   1.0504E-10

== TH FLOW =====================================================================
 Step    214 Time=  1.01000E+01 Dt=  5.00000E-02 [y] snes_conv_reason:   11
  newton =   1 [     215] linear =   133 [     27655] cuts =  0 [   0]
  --> max chng: dpmx=   3.4925E-10 dtmpmx=   1.0227E-10

== TH FLOW =====================================================================
 Step    215 Time=  1.01500E+01 Dt=  5.00000E-02 [y] snes_conv_reason:   11
  newton =   1 [     216] linear =   127 [     27782] cuts =  0 [   0]
  --> max chng: dpmx=   3.4925E-10 dtmpmx=   1.0447E-10

== TH FLOW =====================================================================
 Step    216 Time=  1.02000E+01 Dt=  5.00000E-02 [y] snes_conv_reason:   11
  newton =   1 [     217] linear =   126 [     27908] cuts =  0 [   0]
  --> max chng: dpmx=   4.6566E-10 dtmpmx=   1.0427E-10

== TH FLOW =====================================================================
 Step    217 Time=  1.02500E+01 Dt=  5.00000E-02 [y] snes_conv_reason:   11
  newton =   1 [     218] linear =    93 [     28001] cuts =  0 [   0]
  --> max chng: dpmx=   3.4925E-10 dtmpmx=   1.2637E-10

== TH FLOW =====================================================================
 Step    218 Time=  1.03000E+01 Dt=  5.00000E-02 [y] snes_conv_reason:   11
  newton =   1 [     219] linear =   125 [     28126] cuts =  0 [   0]
  --> max chng: dpmx=   3.4925E-10 dtmpmx=   1.1401E-10

== TH FLOW =====================================================================
 Step    219 Time=  1.03500E+01 Dt=  5.00000E-02 [y] snes_conv_reason:   11
  newton =   1 [     220] linear =   139 [     28265] cuts =  0 [   0]
  --> max chng: dpmx=   3.4925E-10 dtmpmx=   1.0832E-10

== TH FLOW =====================================================================
 Step    220 Time=  1.04000E+01 Dt=  5.00000E-02 [y] snes_conv_reason:   11
  newton =   1 [     221] linear =   136 [     28401] cuts =  0 [   0]
  --> max chng: dpmx=   3.4925E-10 dtmpmx=   9.8030E-11

== TH FLOW =====================================================================
 Step    221 Time=  1.04500E+01 Dt=  5.00000E-02 [y] snes_conv_reason:   11
  newton =   1 [     222] linear =   131 [     28532] cuts =  0 [   0]
  --> max chng: dpmx=   3.4925E-10 dtmpmx=   1.0541E-10

== TH FLOW =====================================================================
 Step    222 Time=  1.05000E+01 Dt=  5.00000E-02 [y] snes_conv_reason:   11
  newton =   1 [     223] linear =   131 [     28663] cuts =  0 [   0]
  --> max chng: dpmx=   4.6566E-10 dtmpmx=   1.0162E-10

== TH FLOW =====================================================================
 Step    223 Time=  1.05500E+01 Dt=  5.00000E-02 [y] snes_conv_reason:   11
  newton =   1 [     224] linear =   144 [     28807] cuts =  0 [   0]
  --> max chng: dpmx=   3.4925E-10 dtmpmx=   1.1224E-10

== TH FLOW =====================================================================
 Step    224 Time=  1.06000E+01 Dt=  5.00000E-02 [y] snes_conv_reason:   11
  newton =   1 [     225] linear =   141 [     28948] cuts =  0 [   0]
  --> max chng: dpmx=   3.4925E-10 dtmpmx=   1.1592E-10

== TH FLOW =====================================================================
 Step    225 Time=  1.06500E+01 Dt=  5.00000E-02 [y] snes_conv_reason:   11
  newton =   1 [     226] linear =   128 [     29076] cuts =  0 [   0]
  --> max chng: dpmx=   4.6566E-10 dtmpmx=   9.7907E-11

== TH FLOW =====================================================================
 Step    226 Time=  1.07000E+01 Dt=  5.00000E-02 [y] snes_conv_reason:   11
  newton =   1 [     227] linear =   141 [     29217] cuts =  0 [   0]
  --> max chng: dpmx=   4.6566E-10 dtmpmx=   1.0506E-10

== TH FLOW =====================================================================
 Step    227 Time=  1.07500E+01 Dt=  5.00000E-02 [y] snes_conv_reason:   11
  newton =   1 [     228] linear =   130 [     29347] cuts =  0 [   0]
  --> max chng: dpmx=   2.3283E-10 dtmpmx=   1.1206E-10

== TH FLOW =====================================================================
 Step    228 Time=  1.08000E+01 Dt=  5.00000E-02 [y] snes_conv_reason:   11
  newton =   1 [     229] linear =   144 [     29491] cuts =  0 [   0]
  --> max chng: dpmx=   3.4925E-10 dtmpmx=   1.1442E-10

== TH FLOW =====================================================================
 Step    229 Time=  1.08500E+01 Dt=  5.00000E-02 [y] snes_conv_reason:   11
  newton =   1 [     230] linear =   133 [     29624] cuts =  0 [   0]
  --> max chng: dpmx=   3.4925E-10 dtmpmx=   9.7451E-11

== TH FLOW =====================================================================
 Step    230 Time=  1.09000E+01 Dt=  5.00000E-02 [y] snes_conv_reason:   11
  newton =   1 [     231] linear =   130 [     29754] cuts =  0 [   0]
  --> max chng: dpmx=   3.4925E-10 dtmpmx=   9.5685E-11

== TH FLOW =====================================================================
 Step    231 Time=  1.09500E+01 Dt=  5.00000E-02 [y] snes_conv_reason:   11
  newton =   1 [     232] linear =   143 [     29897] cuts =  0 [   0]
  --> max chng: dpmx=   3.4925E-10 dtmpmx=   1.0605E-10

== TH FLOW =====================================================================
 Step    232 Time=  1.10000E+01 Dt=  5.00000E-02 [y] snes_conv_reason:   11
  newton =   1 [     233] linear =   154 [     30051] cuts =  0 [   0]
  --> max chng: dpmx=   4.6566E-10 dtmpmx=   1.0468E-10

== TH FLOW =====================================================================
 Step    233 Time=  1.10500E+01 Dt=  5.00000E-02 [y] snes_conv_reason:   11
  newton =   1 [     234] linear =   128 [     30179] cuts =  0 [   0]
  --> max chng: dpmx=   3.4925E-10 dtmpmx=   1.0240E-10

== TH FLOW =====================================================================
 Step    234 Time=  1.11000E+01 Dt=  5.00000E-02 [y] snes_conv_reason:   11
  newton =   1 [     235] linear =   139 [     30318] cuts =  0 [   0]
  --> max chng: dpmx=   3.4925E-10 dtmpmx=   1.2709E-10

== TH FLOW =====================================================================
 Step    235 Time=  1.11500E+01 Dt=  5.00000E-02 [y] snes_conv_reason:   11
  newton =   1 [     236] linear =   148 [     30466] cuts =  0 [   0]
  --> max chng: dpmx=   3.4925E-10 dtmpmx=   1.0378E-10

== TH FLOW =====================================================================
 Step    236 Time=  1.12000E+01 Dt=  5.00000E-02 [y] snes_conv_reason:   11
  newton =   1 [     237] linear =   125 [     30591] cuts =  0 [   0]
  --> max chng: dpmx=   3.4925E-10 dtmpmx=   1.1449E-10

== TH FLOW =====================================================================
 Step    237 Time=  1.12500E+01 Dt=  5.00000E-02 [y] snes_conv_reason:   11
  newton =   1 [     238] linear =   124 [     30715] cuts =  0 [   0]
  --> max chng: dpmx=   3.4925E-10 dtmpmx=   1.0375E-10

== TH FLOW =====================================================================
 Step    238 Time=  1.13000E+01 Dt=  5.00000E-02 [y] snes_conv_reason:   11
  newton =   1 [     239] linear =   132 [     30847] cuts =  0 [   0]
  --> max chng: dpmx=   3.4925E-10 dtmpmx=   1.0016E-10

== TH FLOW =====================================================================
 Step    239 Time=  1.13500E+01 Dt=  5.00000E-02 [y] snes_conv_reason:   11
  newton =   1 [     240] linear =   125 [     30972] cuts =  0 [   0]
  --> max chng: dpmx=   2.3283E-10 dtmpmx=   1.0470E-10

== TH FLOW =====================================================================
 Step    240 Time=  1.14000E+01 Dt=  5.00000E-02 [y] snes_conv_reason:   11
  newton =   1 [     241] linear =   124 [     31096] cuts =  0 [   0]
  --> max chng: dpmx=   3.4925E-10 dtmpmx=   9.9440E-11

== TH FLOW =====================================================================
 Step    241 Time=  1.14500E+01 Dt=  5.00000E-02 [y] snes_conv_reason:   11
  newton =   1 [     242] linear =   126 [     31222] cuts =  0 [   0]
  --> max chng: dpmx=   3.4925E-10 dtmpmx=   1.0190E-10

== TH FLOW =====================================================================
 Step    242 Time=  1.15000E+01 Dt=  5.00000E-02 [y] snes_conv_reason:   11
  newton =   1 [     243] linear =   136 [     31358] cuts =  0 [   0]
  --> max chng: dpmx=   3.4925E-10 dtmpmx=   1.0549E-10

== TH FLOW =====================================================================
 Step    243 Time=  1.15500E+01 Dt=  5.00000E-02 [y] snes_conv_reason:   11
  newton =   1 [     244] linear =   129 [     31487] cuts =  0 [   0]
  --> max chng: dpmx=   3.4925E-10 dtmpmx=   9.6094E-11

== TH FLOW =====================================================================
 Step    244 Time=  1.16000E+01 Dt=  5.00000E-02 [y] snes_conv_reason:   11
  newton =   1 [     245] linear =   139 [     31626] cuts =  0 [   0]
  --> max chng: dpmx=   3.4925E-10 dtmpmx=   1.0448E-10

== TH FLOW =====================================================================
 Step    245 Time=  1.16500E+01 Dt=  5.00000E-02 [y] snes_conv_reason:   11
  newton =   1 [     246] linear =   124 [     31750] cuts =  0 [   0]
  --> max chng: dpmx=   4.6566E-10 dtmpmx=   1.0258E-10

== TH FLOW =====================================================================
 Step    246 Time=  1.17000E+01 Dt=  5.00000E-02 [y] snes_conv_reason:   11
  newton =   1 [     247] linear =   126 [     31876] cuts =  0 [   0]
  --> max chng: dpmx=   3.4925E-10 dtmpmx=   1.0530E-10

== TH FLOW =====================================================================
 Step    247 Time=  1.17500E+01 Dt=  5.00000E-02 [y] snes_conv_reason:   11
  newton =   1 [     248] linear =   120 [     31996] cuts =  0 [   0]
  --> max chng: dpmx=   3.4925E-10 dtmpmx=   1.1647E-10

== TH FLOW =====================================================================
 Step    248 Time=  1.18000E+01 Dt=  5.00000E-02 [y] snes_conv_reason:   11
  newton =   1 [     249] linear =   118 [     32114] cuts =  0 [   0]
  --> max chng: dpmx=   3.4925E-10 dtmpmx=   1.0636E-10

== TH FLOW =====================================================================
 Step    249 Time=  1.18500E+01 Dt=  5.00000E-02 [y] snes_conv_reason:   11
  newton =   1 [     250] linear =   110 [     32224] cuts =  0 [   0]
  --> max chng: dpmx=   3.4925E-10 dtmpmx=   1.0768E-10

== TH FLOW =====================================================================
 Step    250 Time=  1.19000E+01 Dt=  5.00000E-02 [y] snes_conv_reason:   11
  newton =   1 [     251] linear =   142 [     32366] cuts =  0 [   0]
  --> max chng: dpmx=   3.4925E-10 dtmpmx=   1.1798E-10

== TH FLOW =====================================================================
 Step    251 Time=  1.19500E+01 Dt=  5.00000E-02 [y] snes_conv_reason:   11
  newton =   1 [     252] linear =   130 [     32496] cuts =  0 [   0]
  --> max chng: dpmx=   3.4925E-10 dtmpmx=   1.0407E-10

== TH FLOW =====================================================================
 Step    252 Time=  1.20000E+01 Dt=  5.00000E-02 [y] snes_conv_reason:   11
  newton =   1 [     253] linear =   137 [     32633] cuts =  0 [   0]
  --> max chng: dpmx=   2.3283E-10 dtmpmx=   1.0029E-10

== TH FLOW =====================================================================
 Step    253 Time=  1.20500E+01 Dt=  5.00000E-02 [y] snes_conv_reason:   11
  newton =   1 [     254] linear =   145 [     32778] cuts =  0 [   0]
  --> max chng: dpmx=   3.4925E-10 dtmpmx=   1.0658E-10

== TH FLOW =====================================================================
 Step    254 Time=  1.21000E+01 Dt=  5.00000E-02 [y] snes_conv_reason:   11
  newton =   1 [     255] linear =   147 [     32925] cuts =  0 [   0]
  --> max chng: dpmx=   3.4925E-10 dtmpmx=   1.1674E-10

== TH FLOW =====================================================================
 Step    255 Time=  1.21500E+01 Dt=  5.00000E-02 [y] snes_conv_reason:   11
  newton =   1 [     256] linear =   129 [     33054] cuts =  0 [   0]
  --> max chng: dpmx=   4.6566E-10 dtmpmx=   1.0493E-10

== TH FLOW =====================================================================
 Step    256 Time=  1.22000E+01 Dt=  5.00000E-02 [y] snes_conv_reason:   11
  newton =   1 [     257] linear =   137 [     33191] cuts =  0 [   0]
  --> max chng: dpmx=   3.4925E-10 dtmpmx=   1.1595E-10

== TH FLOW =====================================================================
 Step    257 Time=  1.22500E+01 Dt=  5.00000E-02 [y] snes_conv_reason:   11
  newton =   1 [     258] linear =   138 [     33329] cuts =  0 [   0]
  --> max chng: dpmx=   3.4925E-10 dtmpmx=   1.0068E-10

[...]
 Step    493 Time=  2.40500E+01 Dt=  5.00000E-02 [y] snes_conv_reason:   11
  newton =   1 [     494] linear =   118 [     63370] cuts =  0 [   0]
  --> max chng: dpmx=   3.4925E-10 dtmpmx=   1.0985E-10

== TH FLOW =====================================================================
 Step    494 Time=  2.41000E+01 Dt=  5.00000E-02 [y] snes_conv_reason:   11
  newton =   1 [     495] linear =   145 [     63515] cuts =  0 [   0]
  --> max chng: dpmx=   3.4925E-10 dtmpmx=   1.1162E-10

== TH FLOW =====================================================================
 Step    495 Time=  2.41500E+01 Dt=  5.00000E-02 [y] snes_conv_reason:   11
  newton =   1 [     496] linear =   125 [     63640] cuts =  0 [   0]
  --> max chng: dpmx=   3.4925E-10 dtmpmx=   1.1253E-10

== TH FLOW =====================================================================
 Step    496 Time=  2.42000E+01 Dt=  5.00000E-02 [y] snes_conv_reason:   11
  newton =   1 [     497] linear =   139 [     63779] cuts =  0 [   0]
  --> max chng: dpmx=   3.4925E-10 dtmpmx=   1.0425E-10

== TH FLOW =====================================================================
 Step    497 Time=  2.42500E+01 Dt=  5.00000E-02 [y] snes_conv_reason:   11
  newton =   1 [     498] linear =   139 [     63918] cuts =  0 [   0]
  --> max chng: dpmx=   3.4925E-10 dtmpmx=   1.0132E-10

== TH FLOW =====================================================================
 Step    498 Time=  2.43000E+01 Dt=  5.00000E-02 [y] snes_conv_reason:   11
  newton =   1 [     499] linear =   126 [     64044] cuts =  0 [   0]
  --> max chng: dpmx=   3.4925E-10 dtmpmx=   1.0701E-10

== TH FLOW =====================================================================
 Step    499 Time=  2.43500E+01 Dt=  5.00000E-02 [y] snes_conv_reason:   11
  newton =   1 [     500] linear =   125 [     64169] cuts =  0 [   0]
  --> max chng: dpmx=   3.4925E-10 dtmpmx=   1.0584E-10

== TH FLOW =====================================================================
 Step    500 Time=  2.44000E+01 Dt=  5.00000E-02 [y] snes_conv_reason:   11
  newton =   1 [     501] linear =   124 [     64293] cuts =  0 [   0]
  --> max chng: dpmx=   3.4925E-10 dtmpmx=   1.1214E-10

== TH FLOW =====================================================================
 Step    501 Time=  2.44500E+01 Dt=  5.00000E-02 [y] snes_conv_reason:   11
  newton =   1 [     502] linear =   134 [     64427] cuts =  0 [   0]
  --> max chng: dpmx=   3.4925E-10 dtmpmx=   1.1031E-10

== TH FLOW =====================================================================
 Step    502 Time=  2.45000E+01 Dt=  5.00000E-02 [y] snes_conv_reason:   11
  newton =   1 [     503] linear =   132 [     64559] cuts =  0 [   0]
  --> max chng: dpmx=   3.4925E-10 dtmpmx=   1.0887E-10

== TH FLOW =====================================================================
 Step    503 Time=  2.45500E+01 Dt=  5.00000E-02 [y] snes_conv_reason:   11
  newton =   1 [     504] linear =    84 [     64643] cuts =  0 [   0]
  --> max chng: dpmx=   3.4925E-10 dtmpmx=   1.0414E-10

== TH FLOW =====================================================================
 Step    504 Time=  2.46000E+01 Dt=  5.00000E-02 [y] snes_conv_reason:   11
  newton =   1 [     505] linear =   135 [     64778] cuts =  0 [   0]
  --> max chng: dpmx=   3.4925E-10 dtmpmx=   1.0593E-10

== TH FLOW =====================================================================
 Step    505 Time=  2.46500E+01 Dt=  5.00000E-02 [y] snes_conv_reason:   11
  newton =   1 [     506] linear =   143 [     64921] cuts =  0 [   0]
  --> max chng: dpmx=   2.3283E-10 dtmpmx=   1.1828E-10

== TH FLOW =====================================================================
 Step    506 Time=  2.47000E+01 Dt=  5.00000E-02 [y] snes_conv_reason:   11
  newton =   1 [     507] linear =   138 [     65059] cuts =  0 [   0]
  --> max chng: dpmx=   3.4925E-10 dtmpmx=   9.9520E-11

== TH FLOW =====================================================================
 Step    507 Time=  2.47500E+01 Dt=  5.00000E-02 [y] snes_conv_reason:   11
  newton =   1 [     508] linear =   140 [     65199] cuts =  0 [   0]
  --> max chng: dpmx=   3.4925E-10 dtmpmx=   1.0644E-10

== TH FLOW =====================================================================
 Step    508 Time=  2.48000E+01 Dt=  5.00000E-02 [y] snes_conv_reason:   11
  newton =   1 [     509] linear =   123 [     65322] cuts =  0 [   0]
  --> max chng: dpmx=   2.3283E-10 dtmpmx=   1.1768E-10

== TH FLOW =====================================================================
 Step    509 Time=  2.48500E+01 Dt=  5.00000E-02 [y] snes_conv_reason:   11
  newton =   1 [     510] linear =   133 [     65455] cuts =  0 [   0]
  --> max chng: dpmx=   2.3283E-10 dtmpmx=   1.0025E-10

== TH FLOW =====================================================================
 Step    510 Time=  2.49000E+01 Dt=  5.00000E-02 [y] snes_conv_reason:   11
  newton =   1 [     511] linear =   133 [     65588] cuts =  0 [   0]
  --> max chng: dpmx=   3.4925E-10 dtmpmx=   1.0868E-10

== TH FLOW =====================================================================
 Step    511 Time=  2.49500E+01 Dt=  5.00000E-02 [y] snes_conv_reason:   11
  newton =   1 [     512] linear =   137 [     65725] cuts =  0 [   0]
  --> max chng: dpmx=   3.4925E-10 dtmpmx=   1.0680E-10

== TH FLOW =====================================================================
 Step    512 Time=  2.50000E+01 Dt=  5.00000E-02 [y] snes_conv_reason:   11
  newton =   1 [     513] linear =   124 [     65849] cuts =  0 [   0]
  --> max chng: dpmx=   3.4925E-10 dtmpmx=   1.1024E-10

== TH FLOW =====================================================================
 Step    513 Time=  2.50500E+01 Dt=  5.00000E-02 [y] snes_conv_reason:   11
  newton =   1 [     514] linear =   108 [     65957] cuts =  0 [   0]
  --> max chng: dpmx=   3.4925E-10 dtmpmx=   1.1200E-10

== TH FLOW =====================================================================
 Step    514 Time=  2.51000E+01 Dt=  5.00000E-02 [y] snes_conv_reason:   11
  newton =   1 [     515] linear =   119 [     66076] cuts =  0 [   0]
  --> max chng: dpmx=   3.4925E-10 dtmpmx=   1.0396E-10

== TH FLOW =====================================================================
 Step    515 Time=  2.51500E+01 Dt=  5.00000E-02 [y] snes_conv_reason:   11
  newton =   1 [     516] linear =   132 [     66208] cuts =  0 [   0]
  --> max chng: dpmx=   3.4925E-10 dtmpmx=   9.7058E-11

== TH FLOW =====================================================================
 Step    516 Time=  2.52000E+01 Dt=  5.00000E-02 [y] snes_conv_reason:   11
  newton =   1 [     517] linear =   109 [     66317] cuts =  0 [   0]
  --> max chng: dpmx=   3.4925E-10 dtmpmx=   1.0566E-10

== TH FLOW =====================================================================
 Step    517 Time=  2.52500E+01 Dt=  5.00000E-02 [y] snes_conv_reason:   11
  newton =   1 [     518] linear =   134 [     66451] cuts =  0 [   0]
  --> max chng: dpmx=   3.4925E-10 dtmpmx=   1.2888E-10

== TH FLOW =====================================================================
 Step    518 Time=  2.53000E+01 Dt=  5.00000E-02 [y] snes_conv_reason:   11
  newton =   1 [     519] linear =   133 [     66584] cuts =  0 [   0]
  --> max chng: dpmx=   3.4925E-10 dtmpmx=   1.1400E-10

== TH FLOW =====================================================================
 Step    519 Time=  2.53500E+01 Dt=  5.00000E-02 [y] snes_conv_reason:   11
  newton =   1 [     520] linear =   112 [     66696] cuts =  0 [   0]
  --> max chng: dpmx=   3.4925E-10 dtmpmx=   1.0574E-10

== TH FLOW =====================================================================
 Step    520 Time=  2.54000E+01 Dt=  5.00000E-02 [y] snes_conv_reason:   11
  newton =   1 [     521] linear =   146 [     66842] cuts =  0 [   0]
  --> max chng: dpmx=   3.4925E-10 dtmpmx=   1.1242E-10

== TH FLOW =====================================================================
 Step    521 Time=  2.54500E+01 Dt=  5.00000E-02 [y] snes_conv_reason:   11
  newton =   1 [     522] linear =   155 [     66997] cuts =  0 [   0]
  --> max chng: dpmx=   2.3283E-10 dtmpmx=   1.1656E-10

== TH FLOW =====================================================================
 Step    522 Time=  2.55000E+01 Dt=  5.00000E-02 [y] snes_conv_reason:   11
  newton =   1 [     523] linear =   142 [     67139] cuts =  0 [   0]
  --> max chng: dpmx=   3.4925E-10 dtmpmx=   1.1286E-10

== TH FLOW =====================================================================
 Step    523 Time=  2.55500E+01 Dt=  5.00000E-02 [y] snes_conv_reason:   11
  newton =   1 [     524] linear =   138 [     67277] cuts =  0 [   0]
  --> max chng: dpmx=   3.4925E-10 dtmpmx=   1.0691E-10

== TH FLOW =====================================================================
 Step    524 Time=  2.56000E+01 Dt=  5.00000E-02 [y] snes_conv_reason:   11
  newton =   1 [     525] linear =   109 [     67386] cuts =  0 [   0]
  --> max chng: dpmx=   3.4925E-10 dtmpmx=   1.0503E-10

== TH FLOW =====================================================================
 Step    525 Time=  2.56500E+01 Dt=  5.00000E-02 [y] snes_conv_reason:   11
  newton =   1 [     526] linear =   142 [     67528] cuts =  0 [   0]
  --> max chng: dpmx=   3.4925E-10 dtmpmx=   1.1649E-10

== TH FLOW =====================================================================
 Step    526 Time=  2.57000E+01 Dt=  5.00000E-02 [y] snes_conv_reason:   11
  newton =   1 [     527] linear =   140 [     67668] cuts =  0 [   0]
  --> max chng: dpmx=   4.6566E-10 dtmpmx=   1.0525E-10

== TH FLOW =====================================================================
 Step    527 Time=  2.57500E+01 Dt=  5.00000E-02 [y] snes_conv_reason:   11
  newton =   1 [     528] linear =   136 [     67804] cuts =  0 [   0]
  --> max chng: dpmx=   3.4925E-10 dtmpmx=   9.7003E-11

== TH FLOW =====================================================================
 Step    528 Time=  2.58000E+01 Dt=  5.00000E-02 [y] snes_conv_reason:   11
  newton =   1 [     529] linear =   124 [     67928] cuts =  0 [   0]
  --> max chng: dpmx=   3.4925E-10 dtmpmx=   9.9032E-11

== TH FLOW =====================================================================
 Step    529 Time=  2.58500E+01 Dt=  5.00000E-02 [y] snes_conv_reason:   11
  newton =   1 [     530] linear =   130 [     68058] cuts =  0 [   0]
  --> max chng: dpmx=   3.4925E-10 dtmpmx=   1.2027E-10

== TH FLOW =====================================================================
 Step    530 Time=  2.59000E+01 Dt=  5.00000E-02 [y] snes_conv_reason:   11
  newton =   1 [     531] linear =   148 [     68206] cuts =  0 [   0]
  --> max chng: dpmx=   3.4925E-10 dtmpmx=   1.0516E-10

== TH FLOW =====================================================================
 Step    531 Time=  2.59500E+01 Dt=  5.00000E-02 [y] snes_conv_reason:   11
  newton =   1 [     532] linear =   124 [     68330] cuts =  0 [   0]
  --> max chng: dpmx=   3.4925E-10 dtmpmx=   1.0751E-10

== TH FLOW =====================================================================
 Step    532 Time=  2.60000E+01 Dt=  5.00000E-02 [y] snes_conv_reason:   11
  newton =   1 [     533] linear =    91 [     68421] cuts =  0 [   0]
  --> max chng: dpmx=   3.4925E-10 dtmpmx=   9.8417E-11

== TH FLOW =====================================================================
 Step    533 Time=  2.60500E+01 Dt=  5.00000E-02 [y] snes_conv_reason:   11
  newton =   1 [     534] linear =   151 [     68572] cuts =  0 [   0]
  --> max chng: dpmx=   3.4925E-10 dtmpmx=   1.0200E-10

== TH FLOW =====================================================================
 Step    534 Time=  2.61000E+01 Dt=  5.00000E-02 [y] snes_conv_reason:   11
  newton =   1 [     535] linear =   125 [     68697] cuts =  0 [   0]
  --> max chng: dpmx=   3.4925E-10 dtmpmx=   1.0777E-10

== TH FLOW =====================================================================
 Step    535 Time=  2.61500E+01 Dt=  5.00000E-02 [y] snes_conv_reason:   11
  newton =   1 [     536] linear =   131 [     68828] cuts =  0 [   0]
  --> max chng: dpmx=   4.6566E-10 dtmpmx=   1.0925E-10

== TH FLOW =====================================================================
 Step    536 Time=  2.62000E+01 Dt=  5.00000E-02 [y] snes_conv_reason:   11
  newton =   1 [     537] linear =   142 [     68970] cuts =  0 [   0]
  --> max chng: dpmx=   4.6566E-10 dtmpmx=   1.1636E-10

== TH FLOW =====================================================================
 Step    537 Time=  2.62500E+01 Dt=  5.00000E-02 [y] snes_conv_reason:   11
  newton =   1 [     538] linear =   137 [     69107] cuts =  0 [   0]
  --> max chng: dpmx=   4.6566E-10 dtmpmx=   1.0826E-10

== TH FLOW =====================================================================
 Step    538 Time=  2.63000E+01 Dt=  5.00000E-02 [y] snes_conv_reason:   11
  newton =   1 [     539] linear =   130 [     69237] cuts =  0 [   0]
  --> max chng: dpmx=   3.4925E-10 dtmpmx=   1.0516E-10

== TH FLOW =====================================================================
 Step    539 Time=  2.63500E+01 Dt=  5.00000E-02 [y] snes_conv_reason:   11
  newton =   1 [     540] linear =   114 [     69351] cuts =  0 [   0]
  --> max chng: dpmx=   3.4925E-10 dtmpmx=   9.6241E-11

== TH FLOW =====================================================================
 Step    540 Time=  2.64000E+01 Dt=  5.00000E-02 [y] snes_conv_reason:   11
  newton =   1 [     541] linear =   129 [     69480] cuts =  0 [   0]
  --> max chng: dpmx=   3.4925E-10 dtmpmx=   1.0040E-10

== TH FLOW =====================================================================
 Step    541 Time=  2.64500E+01 Dt=  5.00000E-02 [y] snes_conv_reason:   11
  newton =   1 [     542] linear =   150 [     69630] cuts =  0 [   0]
  --> max chng: dpmx=   2.3283E-10 dtmpmx=   9.9524E-11

== TH FLOW =====================================================================
 Step    542 Time=  2.65000E+01 Dt=  5.00000E-02 [y] snes_conv_reason:   11
  newton =   1 [     543] linear =   112 [     69742] cuts =  0 [   0]
  --> max chng: dpmx=   3.4925E-10 dtmpmx=   1.1092E-10

== TH FLOW =====================================================================
 Step    543 Time=  2.65500E+01 Dt=  5.00000E-02 [y] snes_conv_reason:   11
  newton =   1 [     544] linear =   139 [     69881] cuts =  0 [   0]
  --> max chng: dpmx=   3.4925E-10 dtmpmx=   1.0789E-10

== TH FLOW =====================================================================
 Step    544 Time=  2.66000E+01 Dt=  5.00000E-02 [y] snes_conv_reason:   11
  newton =   1 [     545] linear =   125 [     70006] cuts =  0 [   0]
  --> max chng: dpmx=   3.4925E-10 dtmpmx=   1.0971E-10

== TH FLOW =====================================================================
 Step    545 Time=  2.66500E+01 Dt=  5.00000E-02 [y] snes_conv_reason:   11
  newton =   1 [     546] linear =   122 [     70128] cuts =  0 [   0]
  --> max chng: dpmx=   3.4925E-10 dtmpmx=   9.8840E-11

== TH FLOW =====================================================================
 Step    546 Time=  2.67000E+01 Dt=  5.00000E-02 [y] snes_conv_reason:   11
  newton =   1 [     547] linear =    98 [     70226] cuts =  0 [   0]
  --> max chng: dpmx=   3.4925E-10 dtmpmx=   1.0172E-10

== TH FLOW =====================================================================
 Step    547 Time=  2.67500E+01 Dt=  5.00000E-02 [y] snes_conv_reason:   11
  newton =   1 [     548] linear =   171 [     70397] cuts =  0 [   0]
  --> max chng: dpmx=   3.4925E-10 dtmpmx=   1.0483E-10

== TH FLOW =====================================================================
 Step    548 Time=  2.68000E+01 Dt=  5.00000E-02 [y] snes_conv_reason:   11
  newton =   1 [     549] linear =   125 [     70522] cuts =  0 [   0]
  --> max chng: dpmx=   2.3283E-10 dtmpmx=   1.0514E-10

== TH FLOW =====================================================================
 Step    549 Time=  2.68500E+01 Dt=  5.00000E-02 [y] snes_conv_reason:   11
  newton =   1 [     550] linear =   114 [     70636] cuts =  0 [   0]
  --> max chng: dpmx=   3.4925E-10 dtmpmx=   9.9027E-11

== TH FLOW =====================================================================
 Step    550 Time=  2.69000E+01 Dt=  5.00000E-02 [y] snes_conv_reason:   11
  newton =   1 [     551] linear =   110 [     70746] cuts =  0 [   0]
  --> max chng: dpmx=   3.4925E-10 dtmpmx=   1.1736E-10

== TH FLOW =====================================================================
 Step    551 Time=  2.69500E+01 Dt=  5.00000E-02 [y] snes_conv_reason:   11
  newton =   1 [     552] linear =   113 [     70859] cuts =  0 [   0]
  --> max chng: dpmx=   3.4925E-10 dtmpmx=   1.0579E-10

== TH FLOW =====================================================================
 Step    552 Time=  2.70000E+01 Dt=  5.00000E-02 [y] snes_conv_reason:   11
  newton =   1 [     553] linear =   114 [     70973] cuts =  0 [   0]
  --> max chng: dpmx=   2.3283E-10 dtmpmx=   1.1013E-10

== TH FLOW =====================================================================
 Step    553 Time=  2.70500E+01 Dt=  5.00000E-02 [y] snes_conv_reason:   11
  newton =   1 [     554] linear =   121 [     71094] cuts =  0 [   0]
  --> max chng: dpmx=   3.4925E-10 dtmpmx=   1.0985E-10

== TH FLOW =====================================================================
 Step    554 Time=  2.71000E+01 Dt=  5.00000E-02 [y] snes_conv_reason:   11
  newton =   1 [     555] linear =   138 [     71232] cuts =  0 [   0]
  --> max chng: dpmx=   3.4925E-10 dtmpmx=   1.0688E-10

== TH FLOW =====================================================================
 Step    555 Time=  2.71500E+01 Dt=  5.00000E-02 [y] snes_conv_reason:   11
  newton =   1 [     556] linear =   128 [     71360] cuts =  0 [   0]
  --> max chng: dpmx=   3.4925E-10 dtmpmx=   1.1755E-10

== TH FLOW =====================================================================
 Step    556 Time=  2.72000E+01 Dt=  5.00000E-02 [y] snes_conv_reason:   11
  newton =   1 [     557] linear =   130 [     71490] cuts =  0 [   0]
  --> max chng: dpmx=   3.4925E-10 dtmpmx=   9.8900E-11

== TH FLOW =====================================================================
 Step    557 Time=  2.72500E+01 Dt=  5.00000E-02 [y] snes_conv_reason:   11
  newton =   1 [     558] linear =   138 [     71628] cuts =  0 [   0]
  --> max chng: dpmx=   3.4925E-10 dtmpmx=   1.0373E-10

== TH FLOW =====================================================================
 Step    558 Time=  2.73000E+01 Dt=  5.00000E-02 [y] snes_conv_reason:   11
  newton =   1 [     559] linear =   106 [     71734] cuts =  0 [   0]
  --> max chng: dpmx=   3.4925E-10 dtmpmx=   1.2311E-10

== TH FLOW =====================================================================
 Step    559 Time=  2.73500E+01 Dt=  5.00000E-02 [y] snes_conv_reason:   11
  newton =   1 [     560] linear =   110 [     71844] cuts =  0 [   0]
  --> max chng: dpmx=   3.4925E-10 dtmpmx=   1.0348E-10

== TH FLOW =====================================================================
 Step    560 Time=  2.74000E+01 Dt=  5.00000E-02 [y] snes_conv_reason:   11
  newton =   1 [     561] linear =   117 [     71961] cuts =  0 [   0]
  --> max chng: dpmx=   3.4925E-10 dtmpmx=   1.0078E-10

== TH FLOW =====================================================================
 Step    561 Time=  2.74500E+01 Dt=  5.00000E-02 [y] snes_conv_reason:   11
  newton =   1 [     562] linear =   125 [     72086] cuts =  0 [   0]
  --> max chng: dpmx=   3.4925E-10 dtmpmx=   1.0928E-10

== TH FLOW =====================================================================
 Step    562 Time=  2.75000E+01 Dt=  5.00000E-02 [y] snes_conv_reason:   11
  newton =   1 [     563] linear =   115 [     72201] cuts =  0 [   0]
  --> max chng: dpmx=   3.4925E-10 dtmpmx=   1.0799E-10

 Wall Clock Time:  1.4585E+02 [sec]   2.4308E+00 [min]   4.0513E-02 [hr]
