
===================
  PFLOTRAN v3.0.1
===================

 Extent of Gridded Domain
  X: 2.5000000000000000 - 97.500000000000000
  Y: 2.5000000000000000 - 1277.5000000000000
  Z: 2.5000000000000000 - 2.5000000000000000


=+=+=+=+=+=+=+=+=+=+=+=+=+=+=+=+=+=+=+=+=+=+=+=+=+=+=+=+=+=+=+=+=+=+=+=+=+=+=+=+

  Initial Condition

--------------------------------------------------------------------------------
          Flow Condition:   initial
                  Region:   all
--------------------------------------------------------------------------------

  Flow Condition: initial
    Synchronize time with update: no
    Time units: yr
    Length units: m
      Datum:
        Dataset: Unnamed Ascii Dataset
          Type: dataset_ascii_type
          Transient: no
          Array Rank:  3

    Sub Condition: pressure
      Type: hydrostatic
      Gradient:
        Dataset: Unnamed Ascii Dataset
          Type: dataset_ascii_type
          Transient: no
          Array Rank:  3
      Data:
        Dataset: Unnamed Ascii Dataset
          Type: dataset_ascii_type
          Transient: no
          Array Rank:  1

    Sub Condition: temperature
      Type: dirichlet
      Gradient:
      Data:
        Dataset: Unnamed Ascii Dataset
          Type: dataset_ascii_type
          Transient: no
          Array Rank:  1

--------------------------------------------------------------------------------

=+=+=+=+=+=+=+=+=+=+=+=+=+=+=+=+=+=+=+=+=+=+=+=+=+=+=+=+=+=+=+=+=+=+=+=+=+=+=+=+

  Boundary Condition

--------------------------------------------------------------------------------
          Flow Condition:   initial
                  Region:   north
--------------------------------------------------------------------------------

  Flow Condition: initial
    Synchronize time with update: no
    Time units: yr
    Length units: m
      Datum:
        Dataset: Unnamed Ascii Dataset
          Type: dataset_ascii_type
          Transient: no
          Array Rank:  3

    Sub Condition: pressure
      Type: hydrostatic
      Gradient:
        Dataset: Unnamed Ascii Dataset
          Type: dataset_ascii_type
          Transient: no
          Array Rank:  3
      Data:
        Dataset: Unnamed Ascii Dataset
          Type: dataset_ascii_type
          Transient: no
          Array Rank:  1

    Sub Condition: temperature
      Type: dirichlet
      Gradient:
      Data:
        Dataset: Unnamed Ascii Dataset
          Type: dataset_ascii_type
          Transient: no
          Array Rank:  1

--------------------------------------------------------------------------------

=+=+=+=+=+=+=+=+=+=+=+=+=+=+=+=+=+=+=+=+=+=+=+=+=+=+=+=+=+=+=+=+=+=+=+=+=+=+=+=+

  Boundary Condition

--------------------------------------------------------------------------------
          Flow Condition:   initial
                  Region:   south
--------------------------------------------------------------------------------

  Flow Condition: initial
    Synchronize time with update: no
    Time units: yr
    Length units: m
      Datum:
        Dataset: Unnamed Ascii Dataset
          Type: dataset_ascii_type
          Transient: no
          Array Rank:  3

    Sub Condition: pressure
      Type: hydrostatic
      Gradient:
        Dataset: Unnamed Ascii Dataset
          Type: dataset_ascii_type
          Transient: no
          Array Rank:  3
      Data:
        Dataset: Unnamed Ascii Dataset
          Type: dataset_ascii_type
          Transient: no
          Array Rank:  1

    Sub Condition: temperature
      Type: dirichlet
      Gradient:
      Data:
        Dataset: Unnamed Ascii Dataset
          Type: dataset_ascii_type
          Transient: no
          Array Rank:  1

--------------------------------------------------------------------------------

=+=+=+=+=+=+=+=+=+=+=+=+=+=+=+=+=+=+=+=+=+=+=+=+=+=+=+=+=+=+=+=+=+=+=+=+=+=+=+=+

  Source Sink

--------------------------------------------------------------------------------
          Flow Condition:   injection
                  Region:   heatpump_inject0
--------------------------------------------------------------------------------

  Flow Condition: injection
    Synchronize time with update: no
    Time units: yr
    Length units: m
      Datum:

    Sub Condition: rate
      Type: scaled volumetric rate
      Gradient:
      Data:
        Dataset: Unnamed Ascii Dataset
          Type: dataset_ascii_type
          Is transient?: yes
          Number of times:      3
          Is cyclic?: no
          Buffer:
            Rank:  2
            Dims:    1   3
            Buffer Slice Size:   0
          Array Rank:  1

    Sub Condition: temperature
      Type: dirichlet
      Gradient:
      Data:
        Dataset: Unnamed Ascii Dataset
          Type: dataset_ascii_type
          Transient: no
          Array Rank:  1

--------------------------------------------------------------------------------

 Requested processors =    32

FLOW Time Stepper
                 acceleration: on
       acceleration threshold: 5
       number of ramp entries: 5
                ramp entry #1: 2.0000
                ramp entry #2: 2.0000
                ramp entry #3: 2.0000
                ramp entry #4: 2.0000
                ramp entry #5: 2.0000
                ramp entry #6: 1.8000
                ramp entry #7: 1.6000
                ramp entry #8: 1.4000
                ramp entry #9: 1.2000
               ramp entry #10: 1.0000
               ramp entry #11: 1.0000
               ramp entry #12: 1.0000
               ramp entry #13: 1.0000
      maximum number of steps: 999999
constant time steps threshold: 5
       maximum number of cuts: 16
             reduction factor: 5.000000E-01
        maximum growth factor: 2.000000E+00

FLOW Newton Solver
                         atol: 1.000000E-50
                         rtol: 1.000000E-03
                         stol: 1.000000E-08
                         dtol: 1.000000E+04
                      maxnorm: 1.000000E+20
                    inftolres: -9.990000E+02
                    inftolupd: 1.000000E+00
                 inftolrelupd: -9.990000E+02
                 inftolsclres: -9.990000E+02
                     max iter: 50
                     min iter: 1
                         maxf: 10000
                  matrix type: baij
         precond. matrix type: baij
               inexact newton: off
            print convergence: on
   print detailed convergence: off
          check infinity norm: on

FLOW Linear Solver
                       solver: bcgs
               preconditioner: bjacobi
                         atol: 1.000000E-50
                         rtol: 1.000000E-05
                         dtol: 1.000000E+04
            maximum iteration: 10000

== TH FLOW =====================================================================
 Step      1 Time=  1.00000E-05 Dt=  1.00000E-05 [y] snes_conv_reason:   11
  newton =   1 [       1] linear =   114 [       114] cuts =  0 [   0]
  --> max chng: dpmx=   2.9138E-02 dtmpmx=   2.4501E-09

== TH FLOW =====================================================================
 Step      2 Time=  3.00000E-05 Dt=  2.00000E-05 [y] snes_conv_reason:   11
  newton =   1 [       2] linear =   124 [       238] cuts =  0 [   0]
  --> max chng: dpmx=   1.1115E-02 dtmpmx=   4.8412E-09

== TH FLOW =====================================================================
 Step      3 Time=  7.00000E-05 Dt=  4.00000E-05 [y] snes_conv_reason:   11
  newton =   1 [       3] linear =   118 [       356] cuts =  0 [   0]
  --> max chng: dpmx=   2.2616E-03 dtmpmx=   9.6574E-09

== TH FLOW =====================================================================
 Step      4 Time=  1.50000E-04 Dt=  8.00000E-05 [y] snes_conv_reason:   11
  newton =   1 [       4] linear =   116 [       472] cuts =  0 [   0]
  --> max chng: dpmx=   2.4116E-04 dtmpmx=   1.9310E-08

== TH FLOW =====================================================================
 Step      5 Time=  3.10000E-04 Dt=  1.60000E-04 [y] snes_conv_reason:   11
  newton =   1 [       5] linear =   126 [       598] cuts =  0 [   0]
  --> max chng: dpmx=   1.3158E-05 dtmpmx=   3.8619E-08

== TH FLOW =====================================================================
 Step      6 Time=  6.30000E-04 Dt=  3.20000E-04 [y] snes_conv_reason:   11
  newton =   1 [       6] linear =   130 [       728] cuts =  0 [   0]
  --> max chng: dpmx=   2.7823E-07 dtmpmx=   7.7238E-08

== TH FLOW =====================================================================
 Step      7 Time=  1.27000E-03 Dt=  6.40000E-04 [y] snes_conv_reason:   11
  newton =   1 [       7] linear =   118 [       846] cuts =  0 [   0]
  --> max chng: dpmx=   3.6974E-07 dtmpmx=   1.5448E-07

== TH FLOW =====================================================================
 Step      8 Time=  2.55000E-03 Dt=  1.28000E-03 [y] snes_conv_reason:   11
  newton =   1 [       8] linear =   118 [       964] cuts =  0 [   0]
  --> max chng: dpmx=   7.5134E-07 dtmpmx=   3.0895E-07

== TH FLOW =====================================================================
 Step      9 Time=  5.11000E-03 Dt=  2.56000E-03 [y] snes_conv_reason:   11
  newton =   1 [       9] linear =   122 [      1086] cuts =  0 [   0]
  --> max chng: dpmx=   1.5458E-06 dtmpmx=   6.1791E-07

== TH FLOW =====================================================================
 Step     10 Time=  1.02300E-02 Dt=  5.12000E-03 [y] snes_conv_reason:   11
  newton =   1 [      10] linear =   122 [      1208] cuts =  0 [   0]
  --> max chng: dpmx=   3.2650E-06 dtmpmx=   1.2358E-06

== TH FLOW =====================================================================
 Step     11 Time=  2.04700E-02 Dt=  1.02400E-02 [y] snes_conv_reason:   11
  newton =   1 [      11] linear =   124 [      1332] cuts =  0 [   0]
  --> max chng: dpmx=   7.2408E-06 dtmpmx=   2.4716E-06

== TH FLOW =====================================================================
 Step     12 Time=  4.09500E-02 Dt=  2.04800E-02 [y] snes_conv_reason:   11
  newton =   1 [      12] linear =   126 [      1458] cuts =  0 [   0]
  --> max chng: dpmx=   1.7281E-05 dtmpmx=   4.9432E-06

== TH FLOW =====================================================================
 Step     13 Time=  8.19100E-02 Dt=  4.09600E-02 [y] snes_conv_reason:   11
  newton =   1 [      13] linear =   120 [      1578] cuts =  0 [   0]
  --> max chng: dpmx=   4.5608E-05 dtmpmx=   9.8865E-06

== TH FLOW =====================================================================
 Step     14 Time=  1.00000E-01 Dt=  1.80900E-02 [y] snes_conv_reason:   11
  newton =   1 [      14] linear =   129 [      1707] cuts =  0 [   0]
  --> max chng: dpmx=   2.2320E-05 dtmpmx=   4.3664E-06

== TH FLOW =====================================================================
 Step     15 Time=  1.50000E-01 Dt=  5.00000E-02 [y] snes_conv_reason:   11
  newton =   1 [      15] linear =   129 [      1836] cuts =  0 [   0]
  --> max chng: dpmx=   7.8032E-05 dtmpmx=   1.2068E-05

== TH FLOW =====================================================================
 Step     16 Time=  2.00000E-01 Dt=  5.00000E-02 [y] snes_conv_reason:   11
  newton =   1 [      16] linear =   126 [      1962] cuts =  0 [   0]
  --> max chng: dpmx=   9.4178E-05 dtmpmx=   1.2068E-05

== TH FLOW =====================================================================
 Step     17 Time=  2.50000E-01 Dt=  5.00000E-02 [y] snes_conv_reason:   11
  newton =   3 [      19] linear =   361 [      2323] cuts =  0 [   0]
  --> max chng: dpmx=   5.1569E+02 dtmpmx=   3.4994E+00

== TH FLOW =====================================================================
 Step     18 Time=  3.00000E-01 Dt=  5.00000E-02 [y] snes_conv_reason:   11
  newton =   2 [      21] linear =   271 [      2594] cuts =  0 [   0]
  --> max chng: dpmx=   3.7612E+00 dtmpmx=   1.4152E+00

== TH FLOW =====================================================================
 Step     19 Time=  3.50000E-01 Dt=  5.00000E-02 [y] snes_conv_reason:   11
  newton =   2 [      23] linear =   267 [      2861] cuts =  0 [   0]
  --> max chng: dpmx=   2.0171E+00 dtmpmx=   9.7136E-01

== TH FLOW =====================================================================
 Step     20 Time=  4.00000E-01 Dt=  5.00000E-02 [y] snes_conv_reason:   11
  newton =   2 [      25] linear =   269 [      3130] cuts =  0 [   0]
  --> max chng: dpmx=   1.8643E+00 dtmpmx=   7.6498E-01

== TH FLOW =====================================================================
 Step     21 Time=  4.50000E-01 Dt=  5.00000E-02 [y] snes_conv_reason:   11
  newton =   2 [      27] linear =   276 [      3406] cuts =  0 [   0]
  --> max chng: dpmx=   1.7591E+00 dtmpmx=   6.3699E-01

== TH FLOW =====================================================================
 Step     22 Time=  5.00000E-01 Dt=  5.00000E-02 [y] snes_conv_reason:    3
  newton =   1 [      28] linear =   139 [      3545] cuts =  0 [   0]
  --> max chng: dpmx=   1.6840E+00 dtmpmx=   5.7406E-01

== TH FLOW =====================================================================
 Step     23 Time=  5.50000E-01 Dt=  5.00000E-02 [y] snes_conv_reason:    3
  newton =   1 [      29] linear =   136 [      3681] cuts =  0 [   0]
  --> max chng: dpmx=   1.6203E+00 dtmpmx=   5.1891E-01

== TH FLOW =====================================================================
 Step     24 Time=  6.00000E-01 Dt=  5.00000E-02 [y] snes_conv_reason:    3
  newton =   1 [      30] linear =   141 [      3822] cuts =  0 [   0]
  --> max chng: dpmx=   1.5708E+00 dtmpmx=   4.6997E-01

== TH FLOW =====================================================================
 Step     25 Time=  6.50000E-01 Dt=  5.00000E-02 [y] snes_conv_reason:    3
  newton =   1 [      31] linear =   135 [      3957] cuts =  0 [   0]
  --> max chng: dpmx=   1.5302E+00 dtmpmx=   4.3786E-01

== TH FLOW =====================================================================
 Step     26 Time=  7.00000E-01 Dt=  5.00000E-02 [y] snes_conv_reason:    3
  newton =   1 [      32] linear =   136 [      4093] cuts =  0 [   0]
  --> max chng: dpmx=   1.4954E+00 dtmpmx=   4.1115E-01

== TH FLOW =====================================================================
 Step     27 Time=  7.50000E-01 Dt=  5.00000E-02 [y] snes_conv_reason:    3
  newton =   1 [      33] linear =   137 [      4230] cuts =  0 [   0]
  --> max chng: dpmx=   1.4649E+00 dtmpmx=   3.8390E-01

== TH FLOW =====================================================================
 Step     28 Time=  8.00000E-01 Dt=  5.00000E-02 [y] snes_conv_reason:    3
  newton =   1 [      34] linear =   135 [      4365] cuts =  0 [   0]
  --> max chng: dpmx=   1.4388E+00 dtmpmx=   3.6502E-01

== TH FLOW =====================================================================
 Step     29 Time=  8.50000E-01 Dt=  5.00000E-02 [y] snes_conv_reason:    3
  newton =   1 [      35] linear =   132 [      4497] cuts =  0 [   0]
  --> max chng: dpmx=   1.4143E+00 dtmpmx=   3.4810E-01

== TH FLOW =====================================================================
 Step     30 Time=  9.00000E-01 Dt=  5.00000E-02 [y] snes_conv_reason:    3
  newton =   1 [      36] linear =   129 [      4626] cuts =  0 [   0]
  --> max chng: dpmx=   1.3951E+00 dtmpmx=   3.2983E-01

== TH FLOW =====================================================================
 Step     31 Time=  9.50000E-01 Dt=  5.00000E-02 [y] snes_conv_reason:    3
  newton =   1 [      37] linear =   131 [      4757] cuts =  0 [   0]
  --> max chng: dpmx=   1.3767E+00 dtmpmx=   3.1782E-01

== TH FLOW =====================================================================
 Step     32 Time=  1.00000E+00 Dt=  5.00000E-02 [y] snes_conv_reason:    3
  newton =   1 [      38] linear =   136 [      4893] cuts =  0 [   0]
  --> max chng: dpmx=   1.3604E+00 dtmpmx=   3.0552E-01

== TH FLOW =====================================================================
 Step     33 Time=  1.05000E+00 Dt=  5.00000E-02 [y] snes_conv_reason:    3
  newton =   1 [      39] linear =   139 [      5032] cuts =  0 [   0]
  --> max chng: dpmx=   1.3453E+00 dtmpmx=   2.9196E-01

== TH FLOW =====================================================================
 Step     34 Time=  1.10000E+00 Dt=  5.00000E-02 [y] snes_conv_reason:    3
  newton =   1 [      40] linear =   139 [      5171] cuts =  0 [   0]
  --> max chng: dpmx=   1.3296E+00 dtmpmx=   2.8393E-01

== TH FLOW =====================================================================
 Step     35 Time=  1.15000E+00 Dt=  5.00000E-02 [y] snes_conv_reason:    3
  newton =   1 [      41] linear =   127 [      5298] cuts =  0 [   0]
  --> max chng: dpmx=   1.3157E+00 dtmpmx=   2.7425E-01

== TH FLOW =====================================================================
 Step     36 Time=  1.20000E+00 Dt=  5.00000E-02 [y] snes_conv_reason:    3
  newton =   1 [      42] linear =   138 [      5436] cuts =  0 [   0]
  --> max chng: dpmx=   1.3034E+00 dtmpmx=   2.6471E-01

== TH FLOW =====================================================================
 Step     37 Time=  1.25000E+00 Dt=  5.00000E-02 [y] snes_conv_reason:    3
  newton =   1 [      43] linear =   130 [      5566] cuts =  0 [   0]
  --> max chng: dpmx=   1.2902E+00 dtmpmx=   2.5801E-01

== TH FLOW =====================================================================
 Step     38 Time=  1.30000E+00 Dt=  5.00000E-02 [y] snes_conv_reason:    3
  newton =   1 [      44] linear =   133 [      5699] cuts =  0 [   0]
  --> max chng: dpmx=   1.2801E+00 dtmpmx=   2.4999E-01

== TH FLOW =====================================================================
 Step     39 Time=  1.35000E+00 Dt=  5.00000E-02 [y] snes_conv_reason:    3
  newton =   1 [      45] linear =   128 [      5827] cuts =  0 [   0]
  --> max chng: dpmx=   1.2695E+00 dtmpmx=   2.4312E-01

== TH FLOW =====================================================================
 Step     40 Time=  1.40000E+00 Dt=  5.00000E-02 [y] snes_conv_reason:    3
  newton =   1 [      46] linear =   137 [      5964] cuts =  0 [   0]
  --> max chng: dpmx=   1.2590E+00 dtmpmx=   2.3733E-01

== TH FLOW =====================================================================
 Step     41 Time=  1.45000E+00 Dt=  5.00000E-02 [y] snes_conv_reason:    3
  newton =   1 [      47] linear =   137 [      6101] cuts =  0 [   0]
  --> max chng: dpmx=   1.2499E+00 dtmpmx=   2.3046E-01

== TH FLOW =====================================================================
 Step     42 Time=  1.50000E+00 Dt=  5.00000E-02 [y] snes_conv_reason:    3
  newton =   1 [      48] linear =   139 [      6240] cuts =  0 [   0]
  --> max chng: dpmx=   1.2399E+00 dtmpmx=   2.2543E-01

== TH FLOW =====================================================================
 Step     43 Time=  1.55000E+00 Dt=  5.00000E-02 [y] snes_conv_reason:    3
  newton =   1 [      49] linear =   135 [      6375] cuts =  0 [   0]
  --> max chng: dpmx=   1.2309E+00 dtmpmx=   2.2030E-01

== TH FLOW =====================================================================
 Step     44 Time=  1.60000E+00 Dt=  5.00000E-02 [y] snes_conv_reason:    3
  newton =   1 [      50] linear =   137 [      6512] cuts =  0 [   0]
  --> max chng: dpmx=   1.2218E+00 dtmpmx=   2.1429E-01

== TH FLOW =====================================================================
 Step     45 Time=  1.65000E+00 Dt=  5.00000E-02 [y] snes_conv_reason:    3
  newton =   1 [      51] linear =   132 [      6644] cuts =  0 [   0]
  --> max chng: dpmx=   1.2145E+00 dtmpmx=   2.1059E-01

== TH FLOW =====================================================================
 Step     46 Time=  1.70000E+00 Dt=  5.00000E-02 [y] snes_conv_reason:    3
  newton =   1 [      52] linear =   131 [      6775] cuts =  0 [   0]
  --> max chng: dpmx=   1.2059E+00 dtmpmx=   2.0595E-01

== TH FLOW =====================================================================
 Step     47 Time=  1.75000E+00 Dt=  5.00000E-02 [y] snes_conv_reason:    3
  newton =   1 [      53] linear =   136 [      6911] cuts =  0 [   0]
  --> max chng: dpmx=   1.1982E+00 dtmpmx=   2.0134E-01

== TH FLOW =====================================================================
 Step     48 Time=  1.80000E+00 Dt=  5.00000E-02 [y] snes_conv_reason:    3
  newton =   1 [      54] linear =   134 [      7045] cuts =  0 [   0]
  --> max chng: dpmx=   1.1906E+00 dtmpmx=   1.9788E-01

== TH FLOW =====================================================================
 Step     49 Time=  1.85000E+00 Dt=  5.00000E-02 [y] snes_conv_reason:    3
  newton =   1 [      55] linear =   126 [      7171] cuts =  0 [   0]
  --> max chng: dpmx=   1.1822E+00 dtmpmx=   1.9365E-01

== TH FLOW =====================================================================
 Step     50 Time=  1.90000E+00 Dt=  5.00000E-02 [y] snes_conv_reason:    3
  newton =   1 [      56] linear =   136 [      7307] cuts =  0 [   0]
  --> max chng: dpmx=   1.1757E+00 dtmpmx=   1.9009E-01

== TH FLOW =====================================================================
 Step     51 Time=  1.95000E+00 Dt=  5.00000E-02 [y] snes_conv_reason:    3
  newton =   1 [      57] linear =   134 [      7441] cuts =  0 [   0]
  --> max chng: dpmx=   1.1695E+00 dtmpmx=   1.8685E-01

== TH FLOW =====================================================================
 Step     52 Time=  2.00000E+00 Dt=  5.00000E-02 [y] snes_conv_reason:    3
  newton =   1 [      58] linear =   134 [      7575] cuts =  0 [   0]
  --> max chng: dpmx=   1.1618E+00 dtmpmx=   1.8295E-01

== TH FLOW =====================================================================
 Step     53 Time=  2.05000E+00 Dt=  5.00000E-02 [y] snes_conv_reason:    3
  newton =   1 [      59] linear =   132 [      7707] cuts =  0 [   0]
  --> max chng: dpmx=   1.1548E+00 dtmpmx=   1.8020E-01

== TH FLOW =====================================================================
 Step     54 Time=  2.10000E+00 Dt=  5.00000E-02 [y] snes_conv_reason:    3
  newton =   1 [      60] linear =   137 [      7844] cuts =  0 [   0]
  --> max chng: dpmx=   1.1481E+00 dtmpmx=   1.7715E-01

== TH FLOW =====================================================================
 Step     55 Time=  2.15000E+00 Dt=  5.00000E-02 [y] snes_conv_reason:    3
  newton =   1 [      61] linear =   132 [      7976] cuts =  0 [   0]
  --> max chng: dpmx=   1.1419E+00 dtmpmx=   1.7374E-01

== TH FLOW =====================================================================
 Step     56 Time=  2.20000E+00 Dt=  5.00000E-02 [y] snes_conv_reason:    3
  newton =   1 [      62] linear =   128 [      8104] cuts =  0 [   0]
  --> max chng: dpmx=   1.1355E+00 dtmpmx=   1.7143E-01

== TH FLOW =====================================================================
 Step     57 Time=  2.25000E+00 Dt=  5.00000E-02 [y] snes_conv_reason:    3
  newton =   1 [      63] linear =   135 [      8239] cuts =  0 [   0]
  --> max chng: dpmx=   1.1292E+00 dtmpmx=   1.6853E-01

== TH FLOW =====================================================================
 Step     58 Time=  2.30000E+00 Dt=  5.00000E-02 [y] snes_conv_reason:    3
  newton =   1 [      64] linear =   141 [      8380] cuts =  0 [   0]
  --> max chng: dpmx=   1.1231E+00 dtmpmx=   1.6581E-01

== TH FLOW =====================================================================
 Step     59 Time=  2.35000E+00 Dt=  5.00000E-02 [y] snes_conv_reason:    3
  newton =   1 [      65] linear =   134 [      8514] cuts =  0 [   0]
  --> max chng: dpmx=   1.1162E+00 dtmpmx=   1.6356E-01

== TH FLOW =====================================================================
 Step     60 Time=  2.40000E+00 Dt=  5.00000E-02 [y] snes_conv_reason:    3
  newton =   1 [      66] linear =   138 [      8652] cuts =  0 [   0]
  --> max chng: dpmx=   1.1113E+00 dtmpmx=   1.6081E-01

== TH FLOW =====================================================================
 Step     61 Time=  2.45000E+00 Dt=  5.00000E-02 [y] snes_conv_reason:    3
  newton =   1 [      67] linear =   135 [      8787] cuts =  0 [   0]
  --> max chng: dpmx=   1.1051E+00 dtmpmx=   1.5864E-01

== TH FLOW =====================================================================
 Step     62 Time=  2.50000E+00 Dt=  5.00000E-02 [y] snes_conv_reason:    3
  newton =   1 [      68] linear =   133 [      8920] cuts =  0 [   0]
  --> max chng: dpmx=   1.0994E+00 dtmpmx=   1.5646E-01

== TH FLOW =====================================================================
 Step     63 Time=  2.55000E+00 Dt=  5.00000E-02 [y] snes_conv_reason:    3
  newton =   1 [      69] linear =   122 [      9042] cuts =  0 [   0]
  --> max chng: dpmx=   1.0929E+00 dtmpmx=   1.5384E-01

== TH FLOW =====================================================================
 Step     64 Time=  2.60000E+00 Dt=  5.00000E-02 [y] snes_conv_reason:    3
  newton =   1 [      70] linear =   129 [      9171] cuts =  0 [   0]
  --> max chng: dpmx=   1.0877E+00 dtmpmx=   1.5213E-01

== TH FLOW =====================================================================
 Step     65 Time=  2.65000E+00 Dt=  5.00000E-02 [y] snes_conv_reason:    3
  newton =   1 [      71] linear =   136 [      9307] cuts =  0 [   0]
  --> max chng: dpmx=   1.0821E+00 dtmpmx=   1.5002E-01

== TH FLOW =====================================================================
 Step     66 Time=  2.70000E+00 Dt=  5.00000E-02 [y] snes_conv_reason:    3
  newton =   1 [      72] linear =   136 [      9443] cuts =  0 [   0]
  --> max chng: dpmx=   1.0764E+00 dtmpmx=   1.4783E-01

== TH FLOW =====================================================================
 Step     67 Time=  2.75000E+00 Dt=  5.00000E-02 [y] snes_conv_reason:    3
  newton =   1 [      73] linear =   136 [      9579] cuts =  0 [   0]
  --> max chng: dpmx=   1.0709E+00 dtmpmx=   1.4618E-01

== TH FLOW =====================================================================
 Step     68 Time=  2.80000E+00 Dt=  5.00000E-02 [y] snes_conv_reason:    3
  newton =   1 [      74] linear =   133 [      9712] cuts =  0 [   0]
  --> max chng: dpmx=   1.0655E+00 dtmpmx=   1.4413E-01

== TH FLOW =====================================================================
 Step     69 Time=  2.85000E+00 Dt=  5.00000E-02 [y] snes_conv_reason:    3
  newton =   1 [      75] linear =   129 [      9841] cuts =  0 [   0]
  --> max chng: dpmx=   1.0599E+00 dtmpmx=   1.4235E-01

== TH FLOW =====================================================================
 Step     70 Time=  2.90000E+00 Dt=  5.00000E-02 [y] snes_conv_reason:    3
  newton =   1 [      76] linear =   132 [      9973] cuts =  0 [   0]
  --> max chng: dpmx=   1.0548E+00 dtmpmx=   1.4072E-01

== TH FLOW =====================================================================
 Step     71 Time=  2.95000E+00 Dt=  5.00000E-02 [y] snes_conv_reason:    3
  newton =   1 [      77] linear =   126 [     10099] cuts =  0 [   0]
  --> max chng: dpmx=   1.0492E+00 dtmpmx=   1.3872E-01

== TH FLOW =====================================================================
 Step     72 Time=  3.00000E+00 Dt=  5.00000E-02 [y] snes_conv_reason:    3
  newton =   1 [      78] linear =   132 [     10231] cuts =  0 [   0]
  --> max chng: dpmx=   1.0442E+00 dtmpmx=   1.3729E-01

== TH FLOW =====================================================================
 Step     73 Time=  3.05000E+00 Dt=  5.00000E-02 [y] snes_conv_reason:    3
  newton =   1 [      79] linear =   134 [     10365] cuts =  0 [   0]
  --> max chng: dpmx=   1.0384E+00 dtmpmx=   1.3567E-01

== TH FLOW =====================================================================
 Step     74 Time=  3.10000E+00 Dt=  5.00000E-02 [y] snes_conv_reason:    3
  newton =   1 [      80] linear =   128 [     10493] cuts =  0 [   0]
  --> max chng: dpmx=   1.0336E+00 dtmpmx=   1.3386E-01

== TH FLOW =====================================================================
 Step     75 Time=  3.15000E+00 Dt=  5.00000E-02 [y] snes_conv_reason:    3
  newton =   1 [      81] linear =   124 [     10617] cuts =  0 [   0]
  --> max chng: dpmx=   1.0284E+00 dtmpmx=   1.3259E-01

== TH FLOW =====================================================================
 Step     76 Time=  3.20000E+00 Dt=  5.00000E-02 [y] snes_conv_reason:    3
  newton =   1 [      82] linear =   133 [     10750] cuts =  0 [   0]
  --> max chng: dpmx=   1.0232E+00 dtmpmx=   1.3101E-01

== TH FLOW =====================================================================
 Step     77 Time=  3.25000E+00 Dt=  5.00000E-02 [y] snes_conv_reason:    3
  newton =   1 [      83] linear =   131 [     10881] cuts =  0 [   0]
  --> max chng: dpmx=   1.0187E+00 dtmpmx=   1.2950E-01

== TH FLOW =====================================================================
 Step     78 Time=  3.30000E+00 Dt=  5.00000E-02 [y] snes_conv_reason:    3
  newton =   1 [      84] linear =   127 [     11008] cuts =  0 [   0]
  --> max chng: dpmx=   1.0129E+00 dtmpmx=   1.2823E-01

== TH FLOW =====================================================================
 Step     79 Time=  3.35000E+00 Dt=  5.00000E-02 [y] snes_conv_reason:    3
  newton =   1 [      85] linear =   133 [     11141] cuts =  0 [   0]
  --> max chng: dpmx=   1.0085E+00 dtmpmx=   1.2667E-01

== TH FLOW =====================================================================
 Step     80 Time=  3.40000E+00 Dt=  5.00000E-02 [y] snes_conv_reason:    3
  newton =   1 [      86] linear =   128 [     11269] cuts =  0 [   0]
  --> max chng: dpmx=   1.0036E+00 dtmpmx=   1.2543E-01

== TH FLOW =====================================================================
 Step     81 Time=  3.45000E+00 Dt=  5.00000E-02 [y] snes_conv_reason:   11
  newton =   1 [      87] linear =   128 [     11397] cuts =  0 [   0]
  --> max chng: dpmx=   9.9753E-01 dtmpmx=   1.2416E-01

== TH FLOW =====================================================================
 Step     82 Time=  3.50000E+00 Dt=  5.00000E-02 [y] snes_conv_reason:   11
  newton =   1 [      88] linear =   134 [     11531] cuts =  0 [   0]
  --> max chng: dpmx=   9.9368E-01 dtmpmx=   1.2262E-01

== TH FLOW =====================================================================
 Step     83 Time=  3.55000E+00 Dt=  5.00000E-02 [y] snes_conv_reason:   11
  newton =   1 [      89] linear =   134 [     11665] cuts =  0 [   0]
  --> max chng: dpmx=   9.8801E-01 dtmpmx=   1.2161E-01

== TH FLOW =====================================================================
 Step     84 Time=  3.60000E+00 Dt=  5.00000E-02 [y] snes_conv_reason:   11
  newton =   1 [      90] linear =   134 [     11799] cuts =  0 [   0]
  --> max chng: dpmx=   9.8439E-01 dtmpmx=   1.2035E-01

== TH FLOW =====================================================================
 Step     85 Time=  3.65000E+00 Dt=  5.00000E-02 [y] snes_conv_reason:   11
  newton =   1 [      91] linear =   129 [     11928] cuts =  0 [   0]
  --> max chng: dpmx=   9.7828E-01 dtmpmx=   1.1904E-01

== TH FLOW =====================================================================
 Step     86 Time=  3.70000E+00 Dt=  5.00000E-02 [y] snes_conv_reason:   11
  newton =   1 [      92] linear =   131 [     12059] cuts =  0 [   0]
  --> max chng: dpmx=   9.7406E-01 dtmpmx=   1.1803E-01

== TH FLOW =====================================================================
 Step     87 Time=  3.75000E+00 Dt=  5.00000E-02 [y] snes_conv_reason:   11
  newton =   1 [      93] linear =   127 [     12186] cuts =  0 [   0]
  --> max chng: dpmx=   9.6887E-01 dtmpmx=   1.1678E-01

== TH FLOW =====================================================================
 Step     88 Time=  3.80000E+00 Dt=  5.00000E-02 [y] snes_conv_reason:   11
  newton =   1 [      94] linear =   132 [     12318] cuts =  0 [   0]
  --> max chng: dpmx=   9.6414E-01 dtmpmx=   1.1568E-01

== TH FLOW =====================================================================
 Step     89 Time=  3.85000E+00 Dt=  5.00000E-02 [y] snes_conv_reason:   11
  newton =   1 [      95] linear =   123 [     12441] cuts =  0 [   0]
  --> max chng: dpmx=   9.6006E-01 dtmpmx=   1.1466E-01

== TH FLOW =====================================================================
 Step     90 Time=  3.90000E+00 Dt=  5.00000E-02 [y] snes_conv_reason:   11
  newton =   1 [      96] linear =   131 [     12572] cuts =  0 [   0]
  --> max chng: dpmx=   9.5498E-01 dtmpmx=   1.1342E-01

== TH FLOW =====================================================================
 Step     91 Time=  3.95000E+00 Dt=  5.00000E-02 [y] snes_conv_reason:   11
  newton =   1 [      97] linear =   129 [     12701] cuts =  0 [   0]
  --> max chng: dpmx=   9.5005E-01 dtmpmx=   1.1251E-01

== TH FLOW =====================================================================
 Step     92 Time=  4.00000E+00 Dt=  5.00000E-02 [y] snes_conv_reason:   11
  newton =   1 [      98] linear =   135 [     12836] cuts =  0 [   0]
  --> max chng: dpmx=   9.4497E-01 dtmpmx=   1.1149E-01

== TH FLOW =====================================================================
 Step     93 Time=  4.05000E+00 Dt=  5.00000E-02 [y] snes_conv_reason:   11
  newton =   1 [      99] linear =   133 [     12969] cuts =  0 [   0]
  --> max chng: dpmx=   9.4116E-01 dtmpmx=   1.1033E-01

== TH FLOW =====================================================================
 Step     94 Time=  4.10000E+00 Dt=  5.00000E-02 [y] snes_conv_reason:   11
  newton =   1 [     100] linear =   124 [     13093] cuts =  0 [   0]
  --> max chng: dpmx=   9.3564E-01 dtmpmx=   1.0951E-01

== TH FLOW =====================================================================
 Step     95 Time=  4.15000E+00 Dt=  5.00000E-02 [y] snes_conv_reason:   11
  newton =   1 [     101] linear =   132 [     13225] cuts =  0 [   0]
  --> max chng: dpmx=   9.3158E-01 dtmpmx=   1.0848E-01

== TH FLOW =====================================================================
 Step     96 Time=  4.20000E+00 Dt=  5.00000E-02 [y] snes_conv_reason:   11
  newton =   1 [     102] linear =   134 [     13359] cuts =  0 [   0]
  --> max chng: dpmx=   9.2676E-01 dtmpmx=   1.0751E-01

== TH FLOW =====================================================================
 Step     97 Time=  4.25000E+00 Dt=  5.00000E-02 [y] snes_conv_reason:   11
  newton =   1 [     103] linear =   134 [     13493] cuts =  0 [   0]
  --> max chng: dpmx=   9.2219E-01 dtmpmx=   1.0667E-01

== TH FLOW =====================================================================
 Step     98 Time=  4.30000E+00 Dt=  5.00000E-02 [y] snes_conv_reason:   11
  newton =   1 [     104] linear =   118 [     13611] cuts =  0 [   0]
  --> max chng: dpmx=   9.1770E-01 dtmpmx=   1.0564E-01

== TH FLOW =====================================================================
 Step     99 Time=  4.35000E+00 Dt=  5.00000E-02 [y] snes_conv_reason:   11
  newton =   1 [     105] linear =   135 [     13746] cuts =  0 [   0]
  --> max chng: dpmx=   9.1293E-01 dtmpmx=   1.0482E-01

== TH FLOW =====================================================================
 Step    100 Time=  4.40000E+00 Dt=  5.00000E-02 [y] snes_conv_reason:   11
  newton =   1 [     106] linear =   137 [     13883] cuts =  0 [   0]
  --> max chng: dpmx=   9.0839E-01 dtmpmx=   1.0397E-01

== TH FLOW =====================================================================
 Step    101 Time=  4.45000E+00 Dt=  5.00000E-02 [y] snes_conv_reason:   11
  newton =   1 [     107] linear =   129 [     14012] cuts =  0 [   0]
  --> max chng: dpmx=   9.0379E-01 dtmpmx=   1.0294E-01

== TH FLOW =====================================================================
 Step    102 Time=  4.50000E+00 Dt=  5.00000E-02 [y] snes_conv_reason:   11
  newton =   1 [     108] linear =   133 [     14145] cuts =  0 [   0]
  --> max chng: dpmx=   8.9941E-01 dtmpmx=   1.0227E-01

== TH FLOW =====================================================================
 Step    103 Time=  4.55000E+00 Dt=  5.00000E-02 [y] snes_conv_reason:   11
  newton =   1 [     109] linear =   123 [     14268] cuts =  0 [   0]
  --> max chng: dpmx=   8.9466E-01 dtmpmx=   1.0141E-01

== TH FLOW =====================================================================
 Step    104 Time=  4.60000E+00 Dt=  5.00000E-02 [y] snes_conv_reason:   11
  newton =   1 [     110] linear =   135 [     14403] cuts =  0 [   0]
  --> max chng: dpmx=   8.9046E-01 dtmpmx=   1.0052E-01

== TH FLOW =====================================================================
 Step    105 Time=  4.65000E+00 Dt=  5.00000E-02 [y] snes_conv_reason:   11
  newton =   1 [     111] linear =   130 [     14533] cuts =  0 [   0]
  --> max chng: dpmx=   8.8559E-01 dtmpmx=   9.9830E-02

== TH FLOW =====================================================================
 Step    106 Time=  4.70000E+00 Dt=  5.00000E-02 [y] snes_conv_reason:   11
  newton =   1 [     112] linear =   131 [     14664] cuts =  0 [   0]
  --> max chng: dpmx=   8.8136E-01 dtmpmx=   9.8967E-02

== TH FLOW =====================================================================
 Step    107 Time=  4.75000E+00 Dt=  5.00000E-02 [y] snes_conv_reason:   11
  newton =   1 [     113] linear =   132 [     14796] cuts =  0 [   0]
  --> max chng: dpmx=   8.7703E-01 dtmpmx=   9.8216E-02

== TH FLOW =====================================================================
 Step    108 Time=  4.80000E+00 Dt=  5.00000E-02 [y] snes_conv_reason:   11
  newton =   1 [     114] linear =   131 [     14927] cuts =  0 [   0]
  --> max chng: dpmx=   8.7264E-01 dtmpmx=   9.7507E-02

== TH FLOW =====================================================================
 Step    109 Time=  4.85000E+00 Dt=  5.00000E-02 [y] snes_conv_reason:   11
  newton =   1 [     115] linear =   130 [     15057] cuts =  0 [   0]
  --> max chng: dpmx=   8.6771E-01 dtmpmx=   9.6638E-02

== TH FLOW =====================================================================
 Step    110 Time=  4.90000E+00 Dt=  5.00000E-02 [y] snes_conv_reason:   11
  newton =   1 [     116] linear =   130 [     15187] cuts =  0 [   0]
  --> max chng: dpmx=   8.6300E-01 dtmpmx=   9.6009E-02

== TH FLOW =====================================================================
 Step    111 Time=  4.95000E+00 Dt=  5.00000E-02 [y] snes_conv_reason:   11
  newton =   1 [     117] linear =   132 [     15319] cuts =  0 [   0]
  --> max chng: dpmx=   8.5935E-01 dtmpmx=   9.5287E-02

== TH FLOW =====================================================================
 Step    112 Time=  5.00000E+00 Dt=  5.00000E-02 [y] snes_conv_reason:   11
  newton =   1 [     118] linear =   132 [     15451] cuts =  0 [   0]
  --> max chng: dpmx=   8.5448E-01 dtmpmx=   9.4479E-02

== TH FLOW =====================================================================
 Step    113 Time=  5.05000E+00 Dt=  5.00000E-02 [y] snes_conv_reason:   11
  newton =   1 [     119] linear =   131 [     15582] cuts =  0 [   0]
  --> max chng: dpmx=   8.4991E-01 dtmpmx=   9.3896E-02

== TH FLOW =====================================================================
 Step    114 Time=  5.10000E+00 Dt=  5.00000E-02 [y] snes_conv_reason:   11
  newton =   1 [     120] linear =   127 [     15709] cuts =  0 [   0]
  --> max chng: dpmx=   8.4574E-01 dtmpmx=   9.3163E-02

== TH FLOW =====================================================================
 Step    115 Time=  5.15000E+00 Dt=  5.00000E-02 [y] snes_conv_reason:   11
  newton =   1 [     121] linear =   133 [     15842] cuts =  0 [   0]
  --> max chng: dpmx=   8.4181E-01 dtmpmx=   9.2471E-02

== TH FLOW =====================================================================
 Step    116 Time=  5.20000E+00 Dt=  5.00000E-02 [y] snes_conv_reason:   11
  newton =   1 [     122] linear =   128 [     15970] cuts =  0 [   0]
  --> max chng: dpmx=   8.3651E-01 dtmpmx=   9.1870E-02

== TH FLOW =====================================================================
 Step    117 Time=  5.25000E+00 Dt=  5.00000E-02 [y] snes_conv_reason:   11
  newton =   1 [     123] linear =   131 [     16101] cuts =  0 [   0]
  --> max chng: dpmx=   8.3308E-01 dtmpmx=   9.1130E-02

== TH FLOW =====================================================================
 Step    118 Time=  5.30000E+00 Dt=  5.00000E-02 [y] snes_conv_reason:   11
  newton =   1 [     124] linear =   127 [     16228] cuts =  0 [   0]
  --> max chng: dpmx=   8.2810E-01 dtmpmx=   9.0542E-02

== TH FLOW =====================================================================
 Step    119 Time=  5.35000E+00 Dt=  5.00000E-02 [y] snes_conv_reason:   11
  newton =   1 [     125] linear =   134 [     16362] cuts =  0 [   0]
  --> max chng: dpmx=   8.2386E-01 dtmpmx=   8.9927E-02

== TH FLOW =====================================================================
 Step    120 Time=  5.40000E+00 Dt=  5.00000E-02 [y] snes_conv_reason:   11
  newton =   1 [     126] linear =   130 [     16492] cuts =  0 [   0]
  --> max chng: dpmx=   8.1954E-01 dtmpmx=   8.9183E-02

== TH FLOW =====================================================================
 Step    121 Time=  5.45000E+00 Dt=  5.00000E-02 [y] snes_conv_reason:   11
  newton =   1 [     127] linear =   133 [     16625] cuts =  0 [   0]
  --> max chng: dpmx=   8.1526E-01 dtmpmx=   8.8688E-02

== TH FLOW =====================================================================
 Step    122 Time=  5.50000E+00 Dt=  5.00000E-02 [y] snes_conv_reason:   11
  newton =   1 [     128] linear =   133 [     16758] cuts =  0 [   0]
  --> max chng: dpmx=   8.1080E-01 dtmpmx=   8.8061E-02

== TH FLOW =====================================================================
 Step    123 Time=  5.55000E+00 Dt=  5.00000E-02 [y] snes_conv_reason:   11
  newton =   1 [     129] linear =   128 [     16886] cuts =  0 [   0]
  --> max chng: dpmx=   8.0653E-01 dtmpmx=   8.7417E-02

== TH FLOW =====================================================================
 Step    124 Time=  5.60000E+00 Dt=  5.00000E-02 [y] snes_conv_reason:   11
  newton =   1 [     130] linear =   130 [     17016] cuts =  0 [   0]
  --> max chng: dpmx=   8.0212E-01 dtmpmx=   8.6905E-02

== TH FLOW =====================================================================
 Step    125 Time=  5.65000E+00 Dt=  5.00000E-02 [y] snes_conv_reason:   11
  newton =   1 [     131] linear =   132 [     17148] cuts =  0 [   0]
  --> max chng: dpmx=   7.9766E-01 dtmpmx=   8.6268E-02

== TH FLOW =====================================================================
 Step    126 Time=  5.70000E+00 Dt=  5.00000E-02 [y] snes_conv_reason:   11
  newton =   1 [     132] linear =   127 [     17275] cuts =  0 [   0]
  --> max chng: dpmx=   7.9387E-01 dtmpmx=   8.5715E-02

== TH FLOW =====================================================================
 Step    127 Time=  5.75000E+00 Dt=  5.00000E-02 [y] snes_conv_reason:   11
  newton =   1 [     133] linear =   115 [     17390] cuts =  0 [   0]
  --> max chng: dpmx=   7.8908E-01 dtmpmx=   8.5188E-02

== TH FLOW =====================================================================
 Step    128 Time=  5.80000E+00 Dt=  5.00000E-02 [y] snes_conv_reason:   11
  newton =   1 [     134] linear =   127 [     17517] cuts =  0 [   0]
  --> max chng: dpmx=   7.8526E-01 dtmpmx=   8.4543E-02

== TH FLOW =====================================================================
 Step    129 Time=  5.85000E+00 Dt=  5.00000E-02 [y] snes_conv_reason:   11
  newton =   1 [     135] linear =   134 [     17651] cuts =  0 [   0]
  --> max chng: dpmx=   7.8065E-01 dtmpmx=   8.4074E-02

== TH FLOW =====================================================================
 Step    130 Time=  5.90000E+00 Dt=  5.00000E-02 [y] snes_conv_reason:   11
  newton =   1 [     136] linear =   136 [     17787] cuts =  0 [   0]
  --> max chng: dpmx=   7.7631E-01 dtmpmx=   8.3534E-02

== TH FLOW =====================================================================
 Step    131 Time=  5.95000E+00 Dt=  5.00000E-02 [y] snes_conv_reason:   11
  newton =   1 [     137] linear =   133 [     17920] cuts =  0 [   0]
  --> max chng: dpmx=   7.7213E-01 dtmpmx=   8.2931E-02

== TH FLOW =====================================================================
 Step    132 Time=  6.00000E+00 Dt=  5.00000E-02 [y] snes_conv_reason:   11
  newton =   1 [     138] linear =   133 [     18053] cuts =  0 [   0]
  --> max chng: dpmx=   7.6772E-01 dtmpmx=   8.2490E-02

== TH FLOW =====================================================================
 Step    133 Time=  6.05000E+00 Dt=  5.00000E-02 [y] snes_conv_reason:   11
  newton =   1 [     139] linear =   129 [     18182] cuts =  0 [   0]
  --> max chng: dpmx=   7.6373E-01 dtmpmx=   8.1939E-02

== TH FLOW =====================================================================
 Step    134 Time=  6.10000E+00 Dt=  5.00000E-02 [y] snes_conv_reason:   11
  newton =   1 [     140] linear =   136 [     18318] cuts =  0 [   0]
  --> max chng: dpmx=   7.5915E-01 dtmpmx=   8.1417E-02

== TH FLOW =====================================================================
 Step    135 Time=  6.15000E+00 Dt=  5.00000E-02 [y] snes_conv_reason:   11
  newton =   1 [     141] linear =   133 [     18451] cuts =  0 [   0]
  --> max chng: dpmx=   7.5512E-01 dtmpmx=   8.0961E-02

== TH FLOW =====================================================================
 Step    136 Time=  6.20000E+00 Dt=  5.00000E-02 [y] snes_conv_reason:   11
  newton =   1 [     142] linear =   133 [     18584] cuts =  0 [   0]
  --> max chng: dpmx=   7.5091E-01 dtmpmx=   8.0400E-02

== TH FLOW =====================================================================
 Step    137 Time=  6.25000E+00 Dt=  5.00000E-02 [y] snes_conv_reason:   11
  newton =   1 [     143] linear =   138 [     18722] cuts =  0 [   0]
  --> max chng: dpmx=   7.4650E-01 dtmpmx=   7.9953E-02

== TH FLOW =====================================================================
 Step    138 Time=  6.30000E+00 Dt=  5.00000E-02 [y] snes_conv_reason:   11
  newton =   1 [     144] linear =   132 [     18854] cuts =  0 [   0]
  --> max chng: dpmx=   7.4205E-01 dtmpmx=   7.9483E-02

== TH FLOW =====================================================================
 Step    139 Time=  6.35000E+00 Dt=  5.00000E-02 [y] snes_conv_reason:   11
  newton =   1 [     145] linear =   133 [     18987] cuts =  0 [   0]
  --> max chng: dpmx=   7.3873E-01 dtmpmx=   7.8916E-02

== TH FLOW =====================================================================
 Step    140 Time=  6.40000E+00 Dt=  5.00000E-02 [y] snes_conv_reason:   11
  newton =   1 [     146] linear =   134 [     19121] cuts =  0 [   0]
  --> max chng: dpmx=   7.3377E-01 dtmpmx=   7.8536E-02

== TH FLOW =====================================================================
 Step    141 Time=  6.45000E+00 Dt=  5.00000E-02 [y] snes_conv_reason:   11
  newton =   1 [     147] linear =   132 [     19253] cuts =  0 [   0]
  --> max chng: dpmx=   7.2928E-01 dtmpmx=   7.8055E-02

== TH FLOW =====================================================================
 Step    142 Time=  6.50000E+00 Dt=  5.00000E-02 [y] snes_conv_reason:   11
  newton =   1 [     148] linear =   129 [     19382] cuts =  0 [   0]
  --> max chng: dpmx=   7.2560E-01 dtmpmx=   7.7560E-02

== TH FLOW =====================================================================
 Step    143 Time=  6.55000E+00 Dt=  5.00000E-02 [y] snes_conv_reason:   11
  newton =   1 [     149] linear =   128 [     19510] cuts =  0 [   0]
  --> max chng: dpmx=   7.2108E-01 dtmpmx=   7.7164E-02

== TH FLOW =====================================================================
 Step    144 Time=  6.60000E+00 Dt=  5.00000E-02 [y] snes_conv_reason:   11
  newton =   1 [     150] linear =   130 [     19640] cuts =  0 [   0]
  --> max chng: dpmx=   7.1739E-01 dtmpmx=   7.6672E-02

== TH FLOW =====================================================================
 Step    145 Time=  6.65000E+00 Dt=  5.00000E-02 [y] snes_conv_reason:   11
  newton =   1 [     151] linear =   136 [     19776] cuts =  0 [   0]
  --> max chng: dpmx=   7.1274E-01 dtmpmx=   7.6244E-02

== TH FLOW =====================================================================
 Step    146 Time=  6.70000E+00 Dt=  5.00000E-02 [y] snes_conv_reason:   11
  newton =   1 [     152] linear =   134 [     19910] cuts =  0 [   0]
  --> max chng: dpmx=   7.0855E-01 dtmpmx=   7.5835E-02

== TH FLOW =====================================================================
 Step    147 Time=  6.75000E+00 Dt=  5.00000E-02 [y] snes_conv_reason:   11
  newton =   1 [     153] linear =   131 [     20041] cuts =  0 [   0]
  --> max chng: dpmx=   7.0433E-01 dtmpmx=   7.5334E-02

== TH FLOW =====================================================================
 Step    148 Time=  6.80000E+00 Dt=  5.00000E-02 [y] snes_conv_reason:   11
  newton =   1 [     154] linear =   131 [     20172] cuts =  0 [   0]
  --> max chng: dpmx=   7.0017E-01 dtmpmx=   7.4968E-02

== TH FLOW =====================================================================
 Step    149 Time=  6.85000E+00 Dt=  5.00000E-02 [y] snes_conv_reason:   11
  newton =   1 [     155] linear =   130 [     20302] cuts =  0 [   0]
  --> max chng: dpmx=   6.9612E-01 dtmpmx=   7.4547E-02

== TH FLOW =====================================================================
 Step    150 Time=  6.90000E+00 Dt=  5.00000E-02 [y] snes_conv_reason:   11
  newton =   1 [     156] linear =   133 [     20435] cuts =  0 [   0]
  --> max chng: dpmx=   6.9196E-01 dtmpmx=   7.4076E-02

== TH FLOW =====================================================================
 Step    151 Time=  6.95000E+00 Dt=  5.00000E-02 [y] snes_conv_reason:   11
  newton =   1 [     157] linear =   133 [     20568] cuts =  0 [   0]
  --> max chng: dpmx=   6.8750E-01 dtmpmx=   7.3730E-02

== TH FLOW =====================================================================
 Step    152 Time=  7.00000E+00 Dt=  5.00000E-02 [y] snes_conv_reason:   11
  newton =   1 [     158] linear =   125 [     20693] cuts =  0 [   0]
  --> max chng: dpmx=   6.8367E-01 dtmpmx=   7.3298E-02

== TH FLOW =====================================================================
 Step    153 Time=  7.05000E+00 Dt=  5.00000E-02 [y] snes_conv_reason:   11
  newton =   1 [     159] linear =   122 [     20815] cuts =  0 [   0]
  --> max chng: dpmx=   6.7946E-01 dtmpmx=   7.2887E-02

== TH FLOW =====================================================================
 Step    154 Time=  7.10000E+00 Dt=  5.00000E-02 [y] snes_conv_reason:   11
  newton =   1 [     160] linear =   133 [     20948] cuts =  0 [   0]
  --> max chng: dpmx=   6.7495E-01 dtmpmx=   7.2528E-02

== TH FLOW =====================================================================
 Step    155 Time=  7.15000E+00 Dt=  5.00000E-02 [y] snes_conv_reason:   11
  newton =   1 [     161] linear =   128 [     21076] cuts =  0 [   0]
  --> max chng: dpmx=   6.7099E-01 dtmpmx=   7.2086E-02

== TH FLOW =====================================================================
 Step    156 Time=  7.20000E+00 Dt=  5.00000E-02 [y] snes_conv_reason:   11
  newton =   1 [     162] linear =   124 [     21200] cuts =  0 [   0]
  --> max chng: dpmx=   6.6703E-01 dtmpmx=   7.1731E-02

== TH FLOW =====================================================================
 Step    157 Time=  7.25000E+00 Dt=  5.00000E-02 [y] snes_conv_reason:   11
  newton =   1 [     163] linear =   128 [     21328] cuts =  0 [   0]
  --> max chng: dpmx=   6.6208E-01 dtmpmx=   7.1360E-02

== TH FLOW =====================================================================
 Step    158 Time=  7.30000E+00 Dt=  5.00000E-02 [y] snes_conv_reason:   11
  newton =   1 [     164] linear =   131 [     21459] cuts =  0 [   0]
  --> max chng: dpmx=   6.5851E-01 dtmpmx=   7.0910E-02

== TH FLOW =====================================================================
 Step    159 Time=  7.35000E+00 Dt=  5.00000E-02 [y] snes_conv_reason:   11
  newton =   1 [     165] linear =   131 [     21590] cuts =  0 [   0]
  --> max chng: dpmx=   6.5473E-01 dtmpmx=   7.0607E-02

== TH FLOW =====================================================================
 Step    160 Time=  7.40000E+00 Dt=  5.00000E-02 [y] snes_conv_reason:   11
  newton =   1 [     166] linear =   132 [     21722] cuts =  0 [   0]
  --> max chng: dpmx=   6.5008E-01 dtmpmx=   7.0225E-02

== TH FLOW =====================================================================
 Step    161 Time=  7.45000E+00 Dt=  5.00000E-02 [y] snes_conv_reason:   11
  newton =   1 [     167] linear =   132 [     21854] cuts =  0 [   0]
  --> max chng: dpmx=   6.4596E-01 dtmpmx=   6.9830E-02

== TH FLOW =====================================================================
 Step    162 Time=  7.50000E+00 Dt=  5.00000E-02 [y] snes_conv_reason:   11
  newton =   1 [     168] linear =   126 [     21980] cuts =  0 [   0]
  --> max chng: dpmx=   6.4185E-01 dtmpmx=   6.9514E-02

== TH FLOW =====================================================================
 Step    163 Time=  7.55000E+00 Dt=  5.00000E-02 [y] snes_conv_reason:   11
  newton =   1 [     169] linear =   129 [     22109] cuts =  0 [   0]
  --> max chng: dpmx=   6.3770E-01 dtmpmx=   6.9122E-02

== TH FLOW =====================================================================
 Step    164 Time=  7.60000E+00 Dt=  5.00000E-02 [y] snes_conv_reason:   11
  newton =   1 [     170] linear =   128 [     22237] cuts =  0 [   0]
  --> max chng: dpmx=   6.3386E-01 dtmpmx=   6.8778E-02

== TH FLOW =====================================================================
 Step    165 Time=  7.65000E+00 Dt=  5.00000E-02 [y] snes_conv_reason:   11
  newton =   1 [     171] linear =   130 [     22367] cuts =  0 [   0]
  --> max chng: dpmx=   6.2958E-01 dtmpmx=   6.8450E-02

== TH FLOW =====================================================================
 Step    166 Time=  7.70000E+00 Dt=  5.00000E-02 [y] snes_conv_reason:   11
  newton =   1 [     172] linear =   135 [     22502] cuts =  0 [   0]
  --> max chng: dpmx=   6.2518E-01 dtmpmx=   6.8049E-02

== TH FLOW =====================================================================
 Step    167 Time=  7.75000E+00 Dt=  5.00000E-02 [y] snes_conv_reason:   11
  newton =   1 [     173] linear =   132 [     22634] cuts =  0 [   0]
  --> max chng: dpmx=   6.2146E-01 dtmpmx=   6.7753E-02

== TH FLOW =====================================================================
 Step    168 Time=  7.80000E+00 Dt=  5.00000E-02 [y] snes_conv_reason:   11
  newton =   1 [     174] linear =   132 [     22766] cuts =  0 [   0]
  --> max chng: dpmx=   6.1679E-01 dtmpmx=   6.7415E-02

== TH FLOW =====================================================================
 Step    169 Time=  7.85000E+00 Dt=  5.00000E-02 [y] snes_conv_reason:   11
  newton =   1 [     175] linear =   133 [     22899] cuts =  0 [   0]
  --> max chng: dpmx=   6.1311E-01 dtmpmx=   6.7034E-02

== TH FLOW =====================================================================
 Step    170 Time=  7.90000E+00 Dt=  5.00000E-02 [y] snes_conv_reason:   11
  newton =   1 [     176] linear =   133 [     23032] cuts =  0 [   0]
  --> max chng: dpmx=   6.0898E-01 dtmpmx=   6.6755E-02

== TH FLOW =====================================================================
 Step    171 Time=  7.95000E+00 Dt=  5.00000E-02 [y] snes_conv_reason:   11
  newton =   1 [     177] linear =   134 [     23166] cuts =  0 [   0]
  --> max chng: dpmx=   6.0482E-01 dtmpmx=   6.6406E-02

== TH FLOW =====================================================================
 Step    172 Time=  8.00000E+00 Dt=  5.00000E-02 [y] snes_conv_reason:   11
  newton =   1 [     178] linear =   130 [     23296] cuts =  0 [   0]
  --> max chng: dpmx=   6.0048E-01 dtmpmx=   6.6072E-02

== TH FLOW =====================================================================
 Step    173 Time=  8.05000E+00 Dt=  5.00000E-02 [y] snes_conv_reason:   11
  newton =   1 [     179] linear =   127 [     23423] cuts =  0 [   0]
  --> max chng: dpmx=   5.9670E-01 dtmpmx=   6.5781E-02

== TH FLOW =====================================================================
 Step    174 Time=  8.10000E+00 Dt=  5.00000E-02 [y] snes_conv_reason:   11
  newton =   1 [     180] linear =   130 [     23553] cuts =  0 [   0]
  --> max chng: dpmx=   5.9237E-01 dtmpmx=   6.5423E-02

== TH FLOW =====================================================================
 Step    175 Time=  8.15000E+00 Dt=  5.00000E-02 [y] snes_conv_reason:   11
  newton =   1 [     181] linear =   128 [     23681] cuts =  0 [   0]
  --> max chng: dpmx=   5.8952E-01 dtmpmx=   6.5133E-02

== TH FLOW =====================================================================
 Step    176 Time=  8.20000E+00 Dt=  5.00000E-02 [y] snes_conv_reason:   11
  newton =   1 [     182] linear =   129 [     23810] cuts =  0 [   0]
  --> max chng: dpmx=   5.9262E-01 dtmpmx=   6.4832E-02

== TH FLOW =====================================================================
 Step    177 Time=  8.25000E+00 Dt=  5.00000E-02 [y] snes_conv_reason:   11
  newton =   1 [     183] linear =   127 [     23937] cuts =  0 [   0]
  --> max chng: dpmx=   5.9590E-01 dtmpmx=   6.4466E-02

== TH FLOW =====================================================================
 Step    178 Time=  8.30000E+00 Dt=  5.00000E-02 [y] snes_conv_reason:   11
  newton =   1 [     184] linear =   131 [     24068] cuts =  0 [   0]
  --> max chng: dpmx=   5.9861E-01 dtmpmx=   6.4217E-02

== TH FLOW =====================================================================
 Step    179 Time=  8.35000E+00 Dt=  5.00000E-02 [y] snes_conv_reason:   11
  newton =   1 [     185] linear =   125 [     24193] cuts =  0 [   0]
  --> max chng: dpmx=   6.0213E-01 dtmpmx=   6.3906E-02

== TH FLOW =====================================================================
 Step    180 Time=  8.40000E+00 Dt=  5.00000E-02 [y] snes_conv_reason:   11
  newton =   1 [     186] linear =   129 [     24322] cuts =  0 [   0]
  --> max chng: dpmx=   6.0525E-01 dtmpmx=   6.3581E-02

== TH FLOW =====================================================================
 Step    181 Time=  8.45000E+00 Dt=  5.00000E-02 [y] snes_conv_reason:   11
  newton =   1 [     187] linear =   133 [     24455] cuts =  0 [   0]
  --> max chng: dpmx=   6.0848E-01 dtmpmx=   6.3322E-02

== TH FLOW =====================================================================
 Step    182 Time=  8.50000E+00 Dt=  5.00000E-02 [y] snes_conv_reason:   11
  newton =   1 [     188] linear =   133 [     24588] cuts =  0 [   0]
  --> max chng: dpmx=   6.1158E-01 dtmpmx=   6.3002E-02

== TH FLOW =====================================================================
 Step    183 Time=  8.55000E+00 Dt=  5.00000E-02 [y] snes_conv_reason:   11
  newton =   1 [     189] linear =   133 [     24721] cuts =  0 [   0]
  --> max chng: dpmx=   6.1474E-01 dtmpmx=   6.2718E-02

== TH FLOW =====================================================================
 Step    184 Time=  8.60000E+00 Dt=  5.00000E-02 [y] snes_conv_reason:   11
  newton =   1 [     190] linear =   135 [     24856] cuts =  0 [   0]
  --> max chng: dpmx=   6.1811E-01 dtmpmx=   6.2449E-02

== TH FLOW =====================================================================
 Step    185 Time=  8.65000E+00 Dt=  5.00000E-02 [y] snes_conv_reason:   11
  newton =   1 [     191] linear =   133 [     24989] cuts =  0 [   0]
  --> max chng: dpmx=   6.2106E-01 dtmpmx=   6.2121E-02

== TH FLOW =====================================================================
 Step    186 Time=  8.70000E+00 Dt=  5.00000E-02 [y] snes_conv_reason:   11
  newton =   1 [     192] linear =   133 [     25122] cuts =  0 [   0]
  --> max chng: dpmx=   6.2436E-01 dtmpmx=   6.1874E-02

== TH FLOW =====================================================================
 Step    187 Time=  8.75000E+00 Dt=  5.00000E-02 [y] snes_conv_reason:   11
  newton =   1 [     193] linear =   134 [     25256] cuts =  0 [   0]
  --> max chng: dpmx=   6.2750E-01 dtmpmx=   6.1596E-02

== TH FLOW =====================================================================
 Step    188 Time=  8.80000E+00 Dt=  5.00000E-02 [y] snes_conv_reason:   11
  newton =   1 [     194] linear =   135 [     25391] cuts =  0 [   0]
  --> max chng: dpmx=   6.3074E-01 dtmpmx=   6.1279E-02

== TH FLOW =====================================================================
 Step    189 Time=  8.85000E+00 Dt=  5.00000E-02 [y] snes_conv_reason:   11
  newton =   1 [     195] linear =   135 [     25526] cuts =  0 [   0]
  --> max chng: dpmx=   6.3398E-01 dtmpmx=   6.1049E-02

== TH FLOW =====================================================================
 Step    190 Time=  8.90000E+00 Dt=  5.00000E-02 [y] snes_conv_reason:   11
  newton =   1 [     196] linear =   128 [     25654] cuts =  0 [   0]
  --> max chng: dpmx=   6.3711E-01 dtmpmx=   6.0762E-02

== TH FLOW =====================================================================
 Step    191 Time=  8.95000E+00 Dt=  5.00000E-02 [y] snes_conv_reason:   11
  newton =   1 [     197] linear =   132 [     25786] cuts =  0 [   0]
  --> max chng: dpmx=   6.4039E-01 dtmpmx=   6.0483E-02

== TH FLOW =====================================================================
 Step    192 Time=  9.00000E+00 Dt=  5.00000E-02 [y] snes_conv_reason:   11
  newton =   1 [     198] linear =   129 [     25915] cuts =  0 [   0]
  --> max chng: dpmx=   6.4346E-01 dtmpmx=   6.0243E-02

== TH FLOW =====================================================================
 Step    193 Time=  9.05000E+00 Dt=  5.00000E-02 [y] snes_conv_reason:   11
  newton =   1 [     199] linear =   131 [     26046] cuts =  0 [   0]
  --> max chng: dpmx=   6.4684E-01 dtmpmx=   5.9947E-02

== TH FLOW =====================================================================
 Step    194 Time=  9.10000E+00 Dt=  5.00000E-02 [y] snes_conv_reason:   11
  newton =   1 [     200] linear =   131 [     26177] cuts =  0 [   0]
  --> max chng: dpmx=   6.4998E-01 dtmpmx=   5.9703E-02

== TH FLOW =====================================================================
 Step    195 Time=  9.15000E+00 Dt=  5.00000E-02 [y] snes_conv_reason:   11
  newton =   1 [     201] linear =   136 [     26313] cuts =  0 [   0]
  --> max chng: dpmx=   6.5324E-01 dtmpmx=   5.9454E-02

== TH FLOW =====================================================================
 Step    196 Time=  9.20000E+00 Dt=  5.00000E-02 [y] snes_conv_reason:   11
  newton =   1 [     202] linear =   134 [     26447] cuts =  0 [   0]
  --> max chng: dpmx=   6.5647E-01 dtmpmx=   5.9151E-02

== TH FLOW =====================================================================
 Step    197 Time=  9.25000E+00 Dt=  5.00000E-02 [y] snes_conv_reason:   11
  newton =   1 [     203] linear =   133 [     26580] cuts =  0 [   0]
  --> max chng: dpmx=   6.5962E-01 dtmpmx=   5.8940E-02

== TH FLOW =====================================================================
 Step    198 Time=  9.30000E+00 Dt=  5.00000E-02 [y] snes_conv_reason:   11
  newton =   1 [     204] linear =   131 [     26711] cuts =  0 [   0]
  --> max chng: dpmx=   6.6293E-01 dtmpmx=   5.8682E-02

== TH FLOW =====================================================================
 Step    199 Time=  9.35000E+00 Dt=  5.00000E-02 [y] snes_conv_reason:   11
  newton =   1 [     205] linear =   132 [     26843] cuts =  0 [   0]
  --> max chng: dpmx=   6.6610E-01 dtmpmx=   5.8408E-02

== TH FLOW =====================================================================
 Step    200 Time=  9.40000E+00 Dt=  5.00000E-02 [y] snes_conv_reason:   11
  newton =   1 [     206] linear =   134 [     26977] cuts =  0 [   0]
  --> max chng: dpmx=   6.6939E-01 dtmpmx=   5.8193E-02

== TH FLOW =====================================================================
 Step    201 Time=  9.45000E+00 Dt=  5.00000E-02 [y] snes_conv_reason:   11
  newton =   1 [     207] linear =   142 [     27119] cuts =  0 [   0]
  --> max chng: dpmx=   6.7260E-01 dtmpmx=   5.7927E-02

== TH FLOW =====================================================================
 Step    202 Time=  9.50000E+00 Dt=  5.00000E-02 [y] snes_conv_reason:   11
  newton =   1 [     208] linear =   137 [     27256] cuts =  0 [   0]
  --> max chng: dpmx=   6.7585E-01 dtmpmx=   5.7686E-02

== TH FLOW =====================================================================
 Step    203 Time=  9.55000E+00 Dt=  5.00000E-02 [y] snes_conv_reason:   11
  newton =   1 [     209] linear =   139 [     27395] cuts =  0 [   0]
  --> max chng: dpmx=   6.7912E-01 dtmpmx=   5.7462E-02

== TH FLOW =====================================================================
 Step    204 Time=  9.60000E+00 Dt=  5.00000E-02 [y] snes_conv_reason:   11
  newton =   1 [     210] linear =   136 [     27531] cuts =  0 [   0]
  --> max chng: dpmx=   6.8227E-01 dtmpmx=   5.7188E-02

== TH FLOW =====================================================================
 Step    205 Time=  9.65000E+00 Dt=  5.00000E-02 [y] snes_conv_reason:   11
  newton =   1 [     211] linear =   137 [     27668] cuts =  0 [   0]
  --> max chng: dpmx=   6.8566E-01 dtmpmx=   5.6978E-02

== TH FLOW =====================================================================
 Step    206 Time=  9.70000E+00 Dt=  5.00000E-02 [y] snes_conv_reason:   11
  newton =   1 [     212] linear =   136 [     27804] cuts =  0 [   0]
  --> max chng: dpmx=   6.8879E-01 dtmpmx=   5.6745E-02

== TH FLOW =====================================================================
 Step    207 Time=  9.75000E+00 Dt=  5.00000E-02 [y] snes_conv_reason:   11
  newton =   1 [     213] linear =   136 [     27940] cuts =  0 [   0]
  --> max chng: dpmx=   6.9214E-01 dtmpmx=   5.6476E-02

== TH FLOW =====================================================================
 Step    208 Time=  9.80000E+00 Dt=  5.00000E-02 [y] snes_conv_reason:   11
  newton =   1 [     214] linear =   135 [     28075] cuts =  0 [   0]
  --> max chng: dpmx=   6.9542E-01 dtmpmx=   5.6284E-02

== TH FLOW =====================================================================
 Step    209 Time=  9.85000E+00 Dt=  5.00000E-02 [y] snes_conv_reason:   11
  newton =   1 [     215] linear =   132 [     28207] cuts =  0 [   0]
  --> max chng: dpmx=   6.9859E-01 dtmpmx=   5.6044E-02

== TH FLOW =====================================================================
 Step    210 Time=  9.90000E+00 Dt=  5.00000E-02 [y] snes_conv_reason:   11
  newton =   1 [     216] linear =   131 [     28338] cuts =  0 [   0]
  --> max chng: dpmx=   7.0200E-01 dtmpmx=   5.5805E-02

== TH FLOW =====================================================================
 Step    211 Time=  9.95000E+00 Dt=  5.00000E-02 [y] snes_conv_reason:   11
  newton =   1 [     217] linear =   131 [     28469] cuts =  0 [   0]
  --> max chng: dpmx=   7.0494E-01 dtmpmx=   5.5604E-02

== TH FLOW =====================================================================
 Step    212 Time=  1.00000E+01 Dt=  5.00000E-02 [y] snes_conv_reason:   11
  newton =   1 [     218] linear =   137 [     28606] cuts =  0 [   0]
  --> max chng: dpmx=   7.0856E-01 dtmpmx=   5.5356E-02

== TH FLOW =====================================================================
 Step    213 Time=  1.00500E+01 Dt=  5.00000E-02 [y] snes_conv_reason:   11
  newton =   1 [     219] linear =   136 [     28742] cuts =  0 [   0]
  --> max chng: dpmx=   7.1162E-01 dtmpmx=   5.5146E-02

== TH FLOW =====================================================================
 Step    214 Time=  1.01000E+01 Dt=  5.00000E-02 [y] snes_conv_reason:   11
  newton =   1 [     220] linear =   131 [     28873] cuts =  0 [   0]
  --> max chng: dpmx=   7.1508E-01 dtmpmx=   5.4937E-02

== TH FLOW =====================================================================
 Step    215 Time=  1.01500E+01 Dt=  5.00000E-02 [y] snes_conv_reason:   11
  newton =   1 [     221] linear =   131 [     29004] cuts =  0 [   0]
  --> max chng: dpmx=   7.1823E-01 dtmpmx=   5.4682E-02

== TH FLOW =====================================================================
 Step    216 Time=  1.02000E+01 Dt=  5.00000E-02 [y] snes_conv_reason:   11
  newton =   1 [     222] linear =   127 [     29131] cuts =  0 [   0]
  --> max chng: dpmx=   7.2145E-01 dtmpmx=   5.4500E-02

== TH FLOW =====================================================================
 Step    217 Time=  1.02500E+01 Dt=  5.00000E-02 [y] snes_conv_reason:   11
  newton =   1 [     223] linear =   133 [     29264] cuts =  0 [   0]
  --> max chng: dpmx=   7.2492E-01 dtmpmx=   5.4283E-02

== TH FLOW =====================================================================
 Step    218 Time=  1.03000E+01 Dt=  5.00000E-02 [y] snes_conv_reason:   11
  newton =   1 [     224] linear =   134 [     29398] cuts =  0 [   0]
  --> max chng: dpmx=   7.2805E-01 dtmpmx=   5.4047E-02

== TH FLOW =====================================================================
 Step    219 Time=  1.03500E+01 Dt=  5.00000E-02 [y] snes_conv_reason:   11
  newton =   1 [     225] linear =   133 [     29531] cuts =  0 [   0]
  --> max chng: dpmx=   7.3151E-01 dtmpmx=   5.3866E-02

== TH FLOW =====================================================================
 Step    220 Time=  1.04000E+01 Dt=  5.00000E-02 [y] snes_conv_reason:   11
  newton =   1 [     226] linear =   135 [     29666] cuts =  0 [   0]
  --> max chng: dpmx=   7.3461E-01 dtmpmx=   5.3641E-02

== TH FLOW =====================================================================
 Step    221 Time=  1.04500E+01 Dt=  5.00000E-02 [y] snes_conv_reason:   11
  newton =   1 [     227] linear =   131 [     29797] cuts =  0 [   0]
  --> max chng: dpmx=   7.3796E-01 dtmpmx=   5.3433E-02

== TH FLOW =====================================================================
 Step    222 Time=  1.05000E+01 Dt=  5.00000E-02 [y] snes_conv_reason:   11
  newton =   1 [     228] linear =   129 [     29926] cuts =  0 [   0]
  --> max chng: dpmx=   7.4131E-01 dtmpmx=   5.3244E-02

== TH FLOW =====================================================================
 Step    223 Time=  1.05500E+01 Dt=  5.00000E-02 [y] snes_conv_reason:   11
  newton =   1 [     229] linear =   131 [     30057] cuts =  0 [   0]
  --> max chng: dpmx=   7.4454E-01 dtmpmx=   5.3012E-02

== TH FLOW =====================================================================
 Step    224 Time=  1.06000E+01 Dt=  5.00000E-02 [y] snes_conv_reason:   11
  newton =   1 [     230] linear =   132 [     30189] cuts =  0 [   0]
  --> max chng: dpmx=   7.4789E-01 dtmpmx=   5.2829E-02

== TH FLOW =====================================================================
 Step    225 Time=  1.06500E+01 Dt=  5.00000E-02 [y] snes_conv_reason:   11
  newton =   1 [     231] linear =   129 [     30318] cuts =  0 [   0]
  --> max chng: dpmx=   7.5122E-01 dtmpmx=   5.2633E-02

== TH FLOW =====================================================================
 Step    226 Time=  1.07000E+01 Dt=  5.00000E-02 [y] snes_conv_reason:   11
  newton =   1 [     232] linear =   123 [     30441] cuts =  0 [   0]
  --> max chng: dpmx=   7.5442E-01 dtmpmx=   5.2400E-02

== TH FLOW =====================================================================
 Step    227 Time=  1.07500E+01 Dt=  5.00000E-02 [y] snes_conv_reason:   11
  newton =   1 [     233] linear =   125 [     30566] cuts =  0 [   0]
  --> max chng: dpmx=   7.5782E-01 dtmpmx=   5.2237E-02

== TH FLOW =====================================================================
 Step    228 Time=  1.08000E+01 Dt=  5.00000E-02 [y] snes_conv_reason:   11
  newton =   1 [     234] linear =   125 [     30691] cuts =  0 [   0]
  --> max chng: dpmx=   7.6110E-01 dtmpmx=   5.2033E-02

== TH FLOW =====================================================================
 Step    229 Time=  1.08500E+01 Dt=  5.00000E-02 [y] snes_conv_reason:   11
  newton =   1 [     235] linear =   132 [     30823] cuts =  0 [   0]
  --> max chng: dpmx=   7.6457E-01 dtmpmx=   5.1825E-02

== TH FLOW =====================================================================
 Step    230 Time=  1.09000E+01 Dt=  5.00000E-02 [y] snes_conv_reason:   11
  newton =   1 [     236] linear =   129 [     30952] cuts =  0 [   0]
  --> max chng: dpmx=   7.6755E-01 dtmpmx=   5.1655E-02

== TH FLOW =====================================================================
 Step    231 Time=  1.09500E+01 Dt=  5.00000E-02 [y] snes_conv_reason:   11
  newton =   1 [     237] linear =   129 [     31081] cuts =  0 [   0]
  --> max chng: dpmx=   7.7105E-01 dtmpmx=   5.1444E-02

== TH FLOW =====================================================================
 Step    232 Time=  1.10000E+01 Dt=  5.00000E-02 [y] snes_conv_reason:   11
  newton =   1 [     238] linear =   130 [     31211] cuts =  0 [   0]
  --> max chng: dpmx=   7.7427E-01 dtmpmx=   5.1261E-02

== TH FLOW =====================================================================
 Step    233 Time=  1.10500E+01 Dt=  5.00000E-02 [y] snes_conv_reason:   11
  newton =   1 [     239] linear =   131 [     31342] cuts =  0 [   0]
  --> max chng: dpmx=   7.7771E-01 dtmpmx=   5.1083E-02

== TH FLOW =====================================================================
 Step    234 Time=  1.11000E+01 Dt=  5.00000E-02 [y] snes_conv_reason:   11
  newton =   1 [     240] linear =   126 [     31468] cuts =  0 [   0]
  --> max chng: dpmx=   7.8115E-01 dtmpmx=   5.0866E-02

== TH FLOW =====================================================================
 Step    235 Time=  1.11500E+01 Dt=  5.00000E-02 [y] snes_conv_reason:   11
  newton =   1 [     241] linear =   132 [     31600] cuts =  0 [   0]
  --> max chng: dpmx=   7.8414E-01 dtmpmx=   5.0706E-02

== TH FLOW =====================================================================
 Step    236 Time=  1.12000E+01 Dt=  5.00000E-02 [y] snes_conv_reason:   11
  newton =   1 [     242] linear =   124 [     31724] cuts =  0 [   0]
  --> max chng: dpmx=   7.8782E-01 dtmpmx=   5.0521E-02

== TH FLOW =====================================================================
 Step    237 Time=  1.12500E+01 Dt=  5.00000E-02 [y] snes_conv_reason:   11
  newton =   1 [     243] linear =   130 [     31854] cuts =  0 [   0]
  --> max chng: dpmx=   7.9087E-01 dtmpmx=   5.0314E-02

== TH FLOW =====================================================================
 Step    238 Time=  1.13000E+01 Dt=  5.00000E-02 [y] snes_conv_reason:   11
  newton =   1 [     244] linear =   129 [     31983] cuts =  0 [   0]
  --> max chng: dpmx=   7.9444E-01 dtmpmx=   5.0160E-02

== TH FLOW =====================================================================
 Step    239 Time=  1.13500E+01 Dt=  5.00000E-02 [y] snes_conv_reason:   11
  newton =   1 [     245] linear =   129 [     32112] cuts =  0 [   0]
  --> max chng: dpmx=   7.9773E-01 dtmpmx=   4.9968E-02

== TH FLOW =====================================================================
 Step    240 Time=  1.14000E+01 Dt=  5.00000E-02 [y] snes_conv_reason:   11
  newton =   1 [     246] linear =   126 [     32238] cuts =  0 [   0]
  --> max chng: dpmx=   8.0090E-01 dtmpmx=   4.9785E-02

== TH FLOW =====================================================================
 Step    241 Time=  1.14500E+01 Dt=  5.00000E-02 [y] snes_conv_reason:   11
  newton =   1 [     247] linear =   126 [     32364] cuts =  0 [   0]
  --> max chng: dpmx=   8.0450E-01 dtmpmx=   4.9623E-02

== TH FLOW =====================================================================
 Step    242 Time=  1.15000E+01 Dt=  5.00000E-02 [y] snes_conv_reason:   11
  newton =   1 [     248] linear =   127 [     32491] cuts =  0 [   0]
  --> max chng: dpmx=   8.0747E-01 dtmpmx=   4.9426E-02

== TH FLOW =====================================================================
 Step    243 Time=  1.15500E+01 Dt=  5.00000E-02 [y] snes_conv_reason:   11
  newton =   1 [     249] linear =   129 [     32620] cuts =  0 [   0]
  --> max chng: dpmx=   8.1113E-01 dtmpmx=   4.9264E-02

== TH FLOW =====================================================================
 Step    244 Time=  1.16000E+01 Dt=  5.00000E-02 [y] snes_conv_reason:   11
  newton =   1 [     250] linear =   131 [     32751] cuts =  0 [   0]
  --> max chng: dpmx=   8.1439E-01 dtmpmx=   4.9096E-02

== TH FLOW =====================================================================
 Step    245 Time=  1.16500E+01 Dt=  5.00000E-02 [y] snes_conv_reason:   11
  newton =   1 [     251] linear =   123 [     32874] cuts =  0 [   0]
  --> max chng: dpmx=   8.1773E-01 dtmpmx=   4.8893E-02

== TH FLOW =====================================================================
 Step    246 Time=  1.17000E+01 Dt=  5.00000E-02 [y] snes_conv_reason:   11
  newton =   1 [     252] linear =   130 [     33004] cuts =  0 [   0]
  --> max chng: dpmx=   8.2110E-01 dtmpmx=   4.8752E-02

== TH FLOW =====================================================================
 Step    247 Time=  1.17500E+01 Dt=  5.00000E-02 [y] snes_conv_reason:   11
  newton =   1 [     253] linear =   124 [     33128] cuts =  0 [   0]
  --> max chng: dpmx=   8.2421E-01 dtmpmx=   4.8577E-02

== TH FLOW =====================================================================
 Step    248 Time=  1.18000E+01 Dt=  5.00000E-02 [y] snes_conv_reason:   11
  newton =   1 [     254] linear =   127 [     33255] cuts =  0 [   0]
  --> max chng: dpmx=   8.2810E-01 dtmpmx=   4.8393E-02

== TH FLOW =====================================================================
 Step    249 Time=  1.18500E+01 Dt=  5.00000E-02 [y] snes_conv_reason:   11
  newton =   1 [     255] linear =   131 [     33386] cuts =  0 [   0]
  --> max chng: dpmx=   8.3095E-01 dtmpmx=   4.8247E-02

== TH FLOW =====================================================================
 Step    250 Time=  1.19000E+01 Dt=  5.00000E-02 [y] snes_conv_reason:   11
  newton =   1 [     256] linear =   131 [     33517] cuts =  0 [   0]
  --> max chng: dpmx=   8.3453E-01 dtmpmx=   4.8067E-02

== TH FLOW =====================================================================
 Step    251 Time=  1.19500E+01 Dt=  5.00000E-02 [y] snes_conv_reason:   11
  newton =   1 [     257] linear =   131 [     33648] cuts =  0 [   0]
  --> max chng: dpmx=   8.3791E-01 dtmpmx=   4.7904E-02

== TH FLOW =====================================================================
 Step    252 Time=  1.20000E+01 Dt=  5.00000E-02 [y] snes_conv_reason:   11
  newton =   1 [     258] linear =   131 [     33779] cuts =  0 [   0]
  --> max chng: dpmx=   8.4094E-01 dtmpmx=   4.7751E-02

== TH FLOW =====================================================================
 Step    253 Time=  1.20500E+01 Dt=  5.00000E-02 [y] snes_conv_reason:   11
  newton =   1 [     259] linear =   126 [     33905] cuts =  0 [   0]
  --> max chng: dpmx=   8.4487E-01 dtmpmx=   4.7565E-02

== TH FLOW =====================================================================
 Step    254 Time=  1.21000E+01 Dt=  5.00000E-02 [y] snes_conv_reason:   11
  newton =   1 [     260] linear =   131 [     34036] cuts =  0 [   0]
  --> max chng: dpmx=   8.4794E-01 dtmpmx=   4.7422E-02

== TH FLOW =====================================================================
 Step    255 Time=  1.21500E+01 Dt=  5.00000E-02 [y] snes_conv_reason:   11
  newton =   1 [     261] linear =   126 [     34162] cuts =  0 [   0]
  --> max chng: dpmx=   8.5116E-01 dtmpmx=   4.7263E-02

== TH FLOW =====================================================================
 Step    256 Time=  1.22000E+01 Dt=  5.00000E-02 [y] snes_conv_reason:   11
  newton =   1 [     262] linear =   131 [     34293] cuts =  0 [   0]
  --> max chng: dpmx=   8.5481E-01 dtmpmx=   4.7079E-02

== TH FLOW =====================================================================
 Step    257 Time=  1.22500E+01 Dt=  5.00000E-02 [y] snes_conv_reason:   11
  newton =   1 [     263] linear =   126 [     34419] cuts =  0 [   0]
  --> max chng: dpmx=   8.5792E-01 dtmpmx=   4.6947E-02

[...]
 Step    493 Time=  2.40500E+01 Dt=  5.00000E-02 [y] snes_conv_reason:   11
  newton =   1 [     499] linear =   123 [     65208] cuts =  0 [   0]
  --> max chng: dpmx=   8.0938E-03 dtmpmx=   1.1665E-04

== TH FLOW =====================================================================
 Step    494 Time=  2.41000E+01 Dt=  5.00000E-02 [y] snes_conv_reason:   11
  newton =   1 [     500] linear =   123 [     65331] cuts =  0 [   0]
  --> max chng: dpmx=   8.1139E-03 dtmpmx=   1.1653E-04

== TH FLOW =====================================================================
 Step    495 Time=  2.41500E+01 Dt=  5.00000E-02 [y] snes_conv_reason:   11
  newton =   1 [     501] linear =   123 [     65454] cuts =  0 [   0]
  --> max chng: dpmx=   8.1332E-03 dtmpmx=   1.1640E-04

== TH FLOW =====================================================================
 Step    496 Time=  2.42000E+01 Dt=  5.00000E-02 [y] snes_conv_reason:   11
  newton =   1 [     502] linear =   120 [     65574] cuts =  0 [   0]
  --> max chng: dpmx=   8.1520E-03 dtmpmx=   1.1628E-04

== TH FLOW =====================================================================
 Step    497 Time=  2.42500E+01 Dt=  5.00000E-02 [y] snes_conv_reason:   11
  newton =   1 [     503] linear =   123 [     65697] cuts =  0 [   0]
  --> max chng: dpmx=   8.1688E-03 dtmpmx=   1.1622E-04

== TH FLOW =====================================================================
 Step    498 Time=  2.43000E+01 Dt=  5.00000E-02 [y] snes_conv_reason:   11
  newton =   1 [     504] linear =   122 [     65819] cuts =  0 [   0]
  --> max chng: dpmx=   8.1865E-03 dtmpmx=   1.1618E-04

== TH FLOW =====================================================================
 Step    499 Time=  2.43500E+01 Dt=  5.00000E-02 [y] snes_conv_reason:   11
  newton =   1 [     505] linear =   122 [     65941] cuts =  0 [   0]
  --> max chng: dpmx=   8.2030E-03 dtmpmx=   1.1614E-04

== TH FLOW =====================================================================
 Step    500 Time=  2.44000E+01 Dt=  5.00000E-02 [y] snes_conv_reason:   11
  newton =   1 [     506] linear =   124 [     66065] cuts =  0 [   0]
  --> max chng: dpmx=   8.2181E-03 dtmpmx=   1.1611E-04

== TH FLOW =====================================================================
 Step    501 Time=  2.44500E+01 Dt=  5.00000E-02 [y] snes_conv_reason:   11
  newton =   1 [     507] linear =   125 [     66190] cuts =  0 [   0]
  --> max chng: dpmx=   8.2335E-03 dtmpmx=   1.1607E-04

== TH FLOW =====================================================================
 Step    502 Time=  2.45000E+01 Dt=  5.00000E-02 [y] snes_conv_reason:   11
  newton =   1 [     508] linear =   120 [     66310] cuts =  0 [   0]
  --> max chng: dpmx=   8.2478E-03 dtmpmx=   1.1603E-04

== TH FLOW =====================================================================
 Step    503 Time=  2.45500E+01 Dt=  5.00000E-02 [y] snes_conv_reason:   11
  newton =   1 [     509] linear =   121 [     66431] cuts =  0 [   0]
  --> max chng: dpmx=   8.2609E-03 dtmpmx=   1.1599E-04

== TH FLOW =====================================================================
 Step    504 Time=  2.46000E+01 Dt=  5.00000E-02 [y] snes_conv_reason:   11
  newton =   1 [     510] linear =   121 [     66552] cuts =  0 [   0]
  --> max chng: dpmx=   8.2758E-03 dtmpmx=   1.1595E-04

== TH FLOW =====================================================================
 Step    505 Time=  2.46500E+01 Dt=  5.00000E-02 [y] snes_conv_reason:   11
  newton =   1 [     511] linear =   121 [     66673] cuts =  0 [   0]
  --> max chng: dpmx=   8.2879E-03 dtmpmx=   1.1591E-04

== TH FLOW =====================================================================
 Step    506 Time=  2.47000E+01 Dt=  5.00000E-02 [y] snes_conv_reason:   11
  newton =   1 [     512] linear =   121 [     66794] cuts =  0 [   0]
  --> max chng: dpmx=   8.3004E-03 dtmpmx=   1.1587E-04

== TH FLOW =====================================================================
 Step    507 Time=  2.47500E+01 Dt=  5.00000E-02 [y] snes_conv_reason:   11
  newton =   1 [     513] linear =   121 [     66915] cuts =  0 [   0]
  --> max chng: dpmx=   8.3123E-03 dtmpmx=   1.1583E-04

== TH FLOW =====================================================================
 Step    508 Time=  2.48000E+01 Dt=  5.00000E-02 [y] snes_conv_reason:   11
  newton =   1 [     514] linear =   116 [     67031] cuts =  0 [   0]
  --> max chng: dpmx=   8.3222E-03 dtmpmx=   1.1579E-04

== TH FLOW =====================================================================
 Step    509 Time=  2.48500E+01 Dt=  5.00000E-02 [y] snes_conv_reason:   11
  newton =   1 [     515] linear =   129 [     67160] cuts =  0 [   0]
  --> max chng: dpmx=   8.3350E-03 dtmpmx=   1.1575E-04

== TH FLOW =====================================================================
 Step    510 Time=  2.49000E+01 Dt=  5.00000E-02 [y] snes_conv_reason:   11
  newton =   1 [     516] linear =   113 [     67273] cuts =  0 [   0]
  --> max chng: dpmx=   8.3445E-03 dtmpmx=   1.1571E-04

== TH FLOW =====================================================================
 Step    511 Time=  2.49500E+01 Dt=  5.00000E-02 [y] snes_conv_reason:   11
  newton =   1 [     517] linear =   107 [     67380] cuts =  0 [   0]
  --> max chng: dpmx=   8.3546E-03 dtmpmx=   1.1567E-04

== TH FLOW =====================================================================
 Step    512 Time=  2.50000E+01 Dt=  5.00000E-02 [y] snes_conv_reason:   11
  newton =   1 [     518] linear =   122 [     67502] cuts =  0 [   0]
  --> max chng: dpmx=   8.3636E-03 dtmpmx=   1.1563E-04

== TH FLOW =====================================================================
 Step    513 Time=  2.50500E+01 Dt=  5.00000E-02 [y] snes_conv_reason:   11
  newton =   1 [     519] linear =   121 [     67623] cuts =  0 [   0]
  --> max chng: dpmx=   8.3730E-03 dtmpmx=   1.1559E-04

== TH FLOW =====================================================================
 Step    514 Time=  2.51000E+01 Dt=  5.00000E-02 [y] snes_conv_reason:   11
  newton =   1 [     520] linear =   119 [     67742] cuts =  0 [   0]
  --> max chng: dpmx=   8.3816E-03 dtmpmx=   1.1555E-04

== TH FLOW =====================================================================
 Step    515 Time=  2.51500E+01 Dt=  5.00000E-02 [y] snes_conv_reason:   11
  newton =   1 [     521] linear =   118 [     67860] cuts =  0 [   0]
  --> max chng: dpmx=   8.3908E-03 dtmpmx=   1.1550E-04

== TH FLOW =====================================================================
 Step    516 Time=  2.52000E+01 Dt=  5.00000E-02 [y] snes_conv_reason:   11
  newton =   1 [     522] linear =   127 [     67987] cuts =  0 [   0]
  --> max chng: dpmx=   8.3959E-03 dtmpmx=   1.1546E-04

== TH FLOW =====================================================================
 Step    517 Time=  2.52500E+01 Dt=  5.00000E-02 [y] snes_conv_reason:   11
  newton =   1 [     523] linear =   121 [     68108] cuts =  0 [   0]
  --> max chng: dpmx=   8.4051E-03 dtmpmx=   1.1542E-04

== TH FLOW =====================================================================
 Step    518 Time=  2.53000E+01 Dt=  5.00000E-02 [y] snes_conv_reason:   11
  newton =   1 [     524] linear =   123 [     68231] cuts =  0 [   0]
  --> max chng: dpmx=   8.4111E-03 dtmpmx=   1.1537E-04

== TH FLOW =====================================================================
 Step    519 Time=  2.53500E+01 Dt=  5.00000E-02 [y] snes_conv_reason:   11
  newton =   1 [     525] linear =   127 [     68358] cuts =  0 [   0]
  --> max chng: dpmx=   8.4175E-03 dtmpmx=   1.1533E-04

== TH FLOW =====================================================================
 Step    520 Time=  2.54000E+01 Dt=  5.00000E-02 [y] snes_conv_reason:   11
  newton =   1 [     526] linear =   116 [     68474] cuts =  0 [   0]
  --> max chng: dpmx=   8.4238E-03 dtmpmx=   1.1529E-04

== TH FLOW =====================================================================
 Step    521 Time=  2.54500E+01 Dt=  5.00000E-02 [y] snes_conv_reason:   11
  newton =   1 [     527] linear =   114 [     68588] cuts =  0 [   0]
  --> max chng: dpmx=   8.4295E-03 dtmpmx=   1.1524E-04

== TH FLOW =====================================================================
 Step    522 Time=  2.55000E+01 Dt=  5.00000E-02 [y] snes_conv_reason:   11
  newton =   1 [     528] linear =   116 [     68704] cuts =  0 [   0]
  --> max chng: dpmx=   8.4341E-03 dtmpmx=   1.1520E-04

== TH FLOW =====================================================================
 Step    523 Time=  2.55500E+01 Dt=  5.00000E-02 [y] snes_conv_reason:   11
  newton =   1 [     529] linear =   117 [     68821] cuts =  0 [   0]
  --> max chng: dpmx=   8.4387E-03 dtmpmx=   1.1515E-04

== TH FLOW =====================================================================
 Step    524 Time=  2.56000E+01 Dt=  5.00000E-02 [y] snes_conv_reason:   11
  newton =   1 [     530] linear =   118 [     68939] cuts =  0 [   0]
  --> max chng: dpmx=   8.4428E-03 dtmpmx=   1.1511E-04

== TH FLOW =====================================================================
 Step    525 Time=  2.56500E+01 Dt=  5.00000E-02 [y] snes_conv_reason:   11
  newton =   1 [     531] linear =   116 [     69055] cuts =  0 [   0]
  --> max chng: dpmx=   8.4471E-03 dtmpmx=   1.1507E-04

== TH FLOW =====================================================================
 Step    526 Time=  2.57000E+01 Dt=  5.00000E-02 [y] snes_conv_reason:   11
  newton =   1 [     532] linear =   120 [     69175] cuts =  0 [   0]
  --> max chng: dpmx=   8.4502E-03 dtmpmx=   1.1502E-04

== TH FLOW =====================================================================
 Step    527 Time=  2.57500E+01 Dt=  5.00000E-02 [y] snes_conv_reason:   11
  newton =   1 [     533] linear =   119 [     69294] cuts =  0 [   0]
  --> max chng: dpmx=   8.4535E-03 dtmpmx=   1.1498E-04

== TH FLOW =====================================================================
 Step    528 Time=  2.58000E+01 Dt=  5.00000E-02 [y] snes_conv_reason:   11
  newton =   1 [     534] linear =   124 [     69418] cuts =  0 [   0]
  --> max chng: dpmx=   8.4552E-03 dtmpmx=   1.1493E-04

== TH FLOW =====================================================================
 Step    529 Time=  2.58500E+01 Dt=  5.00000E-02 [y] snes_conv_reason:   11
  newton =   1 [     535] linear =   113 [     69531] cuts =  0 [   0]
  --> max chng: dpmx=   8.4582E-03 dtmpmx=   1.1488E-04

== TH FLOW =====================================================================
 Step    530 Time=  2.59000E+01 Dt=  5.00000E-02 [y] snes_conv_reason:   11
  newton =   1 [     536] linear =   121 [     69652] cuts =  0 [   0]
  --> max chng: dpmx=   8.4588E-03 dtmpmx=   1.1484E-04

== TH FLOW =====================================================================
 Step    531 Time=  2.59500E+01 Dt=  5.00000E-02 [y] snes_conv_reason:   11
  newton =   1 [     537] linear =   124 [     69776] cuts =  0 [   0]
  --> max chng: dpmx=   8.4602E-03 dtmpmx=   1.1479E-04

== TH FLOW =====================================================================
 Step    532 Time=  2.60000E+01 Dt=  5.00000E-02 [y] snes_conv_reason:   11
  newton =   1 [     538] linear =   123 [     69899] cuts =  0 [   0]
  --> max chng: dpmx=   8.4615E-03 dtmpmx=   1.1475E-04

== TH FLOW =====================================================================
 Step    533 Time=  2.60500E+01 Dt=  5.00000E-02 [y] snes_conv_reason:   11
  newton =   1 [     539] linear =   123 [     70022] cuts =  0 [   0]
  --> max chng: dpmx=   8.4610E-03 dtmpmx=   1.1470E-04

== TH FLOW =====================================================================
 Step    534 Time=  2.61000E+01 Dt=  5.00000E-02 [y] snes_conv_reason:   11
  newton =   1 [     540] linear =   123 [     70145] cuts =  0 [   0]
  --> max chng: dpmx=   8.4615E-03 dtmpmx=   1.1466E-04

== TH FLOW =====================================================================
 Step    535 Time=  2.61500E+01 Dt=  5.00000E-02 [y] snes_conv_reason:   11
  newton =   1 [     541] linear =   114 [     70259] cuts =  0 [   0]
  --> max chng: dpmx=   8.4592E-03 dtmpmx=   1.1461E-04

== TH FLOW =====================================================================
 Step    536 Time=  2.62000E+01 Dt=  5.00000E-02 [y] snes_conv_reason:   11
  newton =   1 [     542] linear =   127 [     70386] cuts =  0 [   0]
  --> max chng: dpmx=   8.4612E-03 dtmpmx=   1.1456E-04

== TH FLOW =====================================================================
 Step    537 Time=  2.62500E+01 Dt=  5.00000E-02 [y] snes_conv_reason:   11
  newton =   1 [     543] linear =   129 [     70515] cuts =  0 [   0]
  --> max chng: dpmx=   8.4577E-03 dtmpmx=   1.1451E-04

== TH FLOW =====================================================================
 Step    538 Time=  2.63000E+01 Dt=  5.00000E-02 [y] snes_conv_reason:   11
  newton =   1 [     544] linear =   102 [     70617] cuts =  0 [   0]
  --> max chng: dpmx=   8.4578E-03 dtmpmx=   1.1447E-04

== TH FLOW =====================================================================
 Step    539 Time=  2.63500E+01 Dt=  5.00000E-02 [y] snes_conv_reason:   11
  newton =   1 [     545] linear =   108 [     70725] cuts =  0 [   0]
  --> max chng: dpmx=   8.4524E-03 dtmpmx=   1.1442E-04

== TH FLOW =====================================================================
 Step    540 Time=  2.64000E+01 Dt=  5.00000E-02 [y] snes_conv_reason:   11
  newton =   1 [     546] linear =   120 [     70845] cuts =  0 [   0]
  --> max chng: dpmx=   8.4518E-03 dtmpmx=   1.1437E-04

== TH FLOW =====================================================================
 Step    541 Time=  2.64500E+01 Dt=  5.00000E-02 [y] snes_conv_reason:   11
  newton =   1 [     547] linear =   117 [     70962] cuts =  0 [   0]
  --> max chng: dpmx=   8.4474E-03 dtmpmx=   1.1432E-04

== TH FLOW =====================================================================
 Step    542 Time=  2.65000E+01 Dt=  5.00000E-02 [y] snes_conv_reason:   11
  newton =   1 [     548] linear =   116 [     71078] cuts =  0 [   0]
  --> max chng: dpmx=   8.4457E-03 dtmpmx=   1.1427E-04

== TH FLOW =====================================================================
 Step    543 Time=  2.65500E+01 Dt=  5.00000E-02 [y] snes_conv_reason:   11
  newton =   1 [     549] linear =   117 [     71195] cuts =  0 [   0]
  --> max chng: dpmx=   8.4397E-03 dtmpmx=   1.1422E-04

== TH FLOW =====================================================================
 Step    544 Time=  2.66000E+01 Dt=  5.00000E-02 [y] snes_conv_reason:   11
  newton =   1 [     550] linear =   118 [     71313] cuts =  0 [   0]
  --> max chng: dpmx=   8.4356E-03 dtmpmx=   1.1418E-04

== TH FLOW =====================================================================
 Step    545 Time=  2.66500E+01 Dt=  5.00000E-02 [y] snes_conv_reason:   11
  newton =   1 [     551] linear =   117 [     71430] cuts =  0 [   0]
  --> max chng: dpmx=   8.4305E-03 dtmpmx=   1.1413E-04

== TH FLOW =====================================================================
 Step    546 Time=  2.67000E+01 Dt=  5.00000E-02 [y] snes_conv_reason:   11
  newton =   1 [     552] linear =   116 [     71546] cuts =  0 [   0]
  --> max chng: dpmx=   8.4250E-03 dtmpmx=   1.1408E-04

== TH FLOW =====================================================================
 Step    547 Time=  2.67500E+01 Dt=  5.00000E-02 [y] snes_conv_reason:   11
  newton =   1 [     553] linear =   122 [     71668] cuts =  0 [   0]
  --> max chng: dpmx=   8.4197E-03 dtmpmx=   1.1403E-04

== TH FLOW =====================================================================
 Step    548 Time=  2.68000E+01 Dt=  5.00000E-02 [y] snes_conv_reason:   11
  newton =   1 [     554] linear =   121 [     71789] cuts =  0 [   0]
  --> max chng: dpmx=   8.4133E-03 dtmpmx=   1.1398E-04

== TH FLOW =====================================================================
 Step    549 Time=  2.68500E+01 Dt=  5.00000E-02 [y] snes_conv_reason:   11
  newton =   1 [     555] linear =   120 [     71909] cuts =  0 [   0]
  --> max chng: dpmx=   8.4070E-03 dtmpmx=   1.1393E-04

== TH FLOW =====================================================================
 Step    550 Time=  2.69000E+01 Dt=  5.00000E-02 [y] snes_conv_reason:   11
  newton =   1 [     556] linear =   120 [     72029] cuts =  0 [   0]
  --> max chng: dpmx=   8.3991E-03 dtmpmx=   1.1388E-04

== TH FLOW =====================================================================
 Step    551 Time=  2.69500E+01 Dt=  5.00000E-02 [y] snes_conv_reason:   11
  newton =   1 [     557] linear =   119 [     72148] cuts =  0 [   0]
  --> max chng: dpmx=   8.3914E-03 dtmpmx=   1.1384E-04

== TH FLOW =====================================================================
 Step    552 Time=  2.70000E+01 Dt=  5.00000E-02 [y] snes_conv_reason:   11
  newton =   1 [     558] linear =   118 [     72266] cuts =  0 [   0]
  --> max chng: dpmx=   8.3842E-03 dtmpmx=   1.1379E-04

== TH FLOW =====================================================================
 Step    553 Time=  2.70500E+01 Dt=  5.00000E-02 [y] snes_conv_reason:   11
  newton =   1 [     559] linear =   118 [     72384] cuts =  0 [   0]
  --> max chng: dpmx=   8.3748E-03 dtmpmx=   1.1373E-04

== TH FLOW =====================================================================
 Step    554 Time=  2.71000E+01 Dt=  5.00000E-02 [y] snes_conv_reason:   11
  newton =   1 [     560] linear =   118 [     72502] cuts =  0 [   0]
  --> max chng: dpmx=   8.3664E-03 dtmpmx=   1.1370E-04

== TH FLOW =====================================================================
 Step    555 Time=  2.71500E+01 Dt=  5.00000E-02 [y] snes_conv_reason:   11
  newton =   1 [     561] linear =   118 [     72620] cuts =  0 [   0]
  --> max chng: dpmx=   8.3568E-03 dtmpmx=   1.1367E-04

== TH FLOW =====================================================================
 Step    556 Time=  2.72000E+01 Dt=  5.00000E-02 [y] snes_conv_reason:   11
  newton =   1 [     562] linear =   118 [     72738] cuts =  0 [   0]
  --> max chng: dpmx=   8.3472E-03 dtmpmx=   1.1364E-04

== TH FLOW =====================================================================
 Step    557 Time=  2.72500E+01 Dt=  5.00000E-02 [y] snes_conv_reason:   11
  newton =   1 [     563] linear =   120 [     72858] cuts =  0 [   0]
  --> max chng: dpmx=   8.3365E-03 dtmpmx=   1.1361E-04

== TH FLOW =====================================================================
 Step    558 Time=  2.73000E+01 Dt=  5.00000E-02 [y] snes_conv_reason:   11
  newton =   1 [     564] linear =   122 [     72980] cuts =  0 [   0]
  --> max chng: dpmx=   8.3260E-03 dtmpmx=   1.1358E-04

== TH FLOW =====================================================================
 Step    559 Time=  2.73500E+01 Dt=  5.00000E-02 [y] snes_conv_reason:   11
  newton =   1 [     565] linear =   120 [     73100] cuts =  0 [   0]
  --> max chng: dpmx=   8.3152E-03 dtmpmx=   1.1355E-04

== TH FLOW =====================================================================
 Step    560 Time=  2.74000E+01 Dt=  5.00000E-02 [y] snes_conv_reason:   11
  newton =   1 [     566] linear =   122 [     73222] cuts =  0 [   0]
  --> max chng: dpmx=   8.3023E-03 dtmpmx=   1.1352E-04

== TH FLOW =====================================================================
 Step    561 Time=  2.74500E+01 Dt=  5.00000E-02 [y] snes_conv_reason:   11
  newton =   1 [     567] linear =   123 [     73345] cuts =  0 [   0]
  --> max chng: dpmx=   8.2917E-03 dtmpmx=   1.1348E-04

== TH FLOW =====================================================================
 Step    562 Time=  2.75000E+01 Dt=  5.00000E-02 [y] snes_conv_reason:   11
  newton =   1 [     568] linear =   121 [     73466] cuts =  0 [   0]
  --> max chng: dpmx=   8.2792E-03 dtmpmx=   1.1346E-04

 Wall Clock Time:  1.7811E+02 [sec]   2.9686E+00 [min]   4.9476E-02 [hr]
