
===================
  PFLOTRAN v3.0.1
===================

 Extent of Gridded Domain
  X: 2.5000000000000000 - 97.500000000000000
  Y: 2.5000000000000000 - 1277.5000000000000
  Z: 2.5000000000000000 - 2.5000000000000000


=+=+=+=+=+=+=+=+=+=+=+=+=+=+=+=+=+=+=+=+=+=+=+=+=+=+=+=+=+=+=+=+=+=+=+=+=+=+=+=+

  Initial Condition

--------------------------------------------------------------------------------
          Flow Condition:   initial
                  Region:   all
--------------------------------------------------------------------------------

  Flow Condition: initial
    Synchronize time with update: no
    Time units: yr
    Length units: m
      Datum:
        Dataset: Unnamed Ascii Dataset
          Type: dataset_ascii_type
          Transient: no
          Array Rank:  3

    Sub Condition: pressure
      Type: hydrostatic
      Gradient:
        Dataset: Unnamed Ascii Dataset
          Type: dataset_ascii_type
          Transient: no
          Array Rank:  3
      Data:
        Dataset: Unnamed Ascii Dataset
          Type: dataset_ascii_type
          Transient: no
          Array Rank:  1

    Sub Condition: temperature
      Type: dirichlet
      Gradient:
      Data:
        Dataset: Unnamed Ascii Dataset
          Type: dataset_ascii_type
          Transient: no
          Array Rank:  1

--------------------------------------------------------------------------------

=+=+=+=+=+=+=+=+=+=+=+=+=+=+=+=+=+=+=+=+=+=+=+=+=+=+=+=+=+=+=+=+=+=+=+=+=+=+=+=+

  Boundary Condition

--------------------------------------------------------------------------------
          Flow Condition:   initial
                  Region:   north
--------------------------------------------------------------------------------

  Flow Condition: initial
    Synchronize time with update: no
    Time units: yr
    Length units: m
      Datum:
        Dataset: Unnamed Ascii Dataset
          Type: dataset_ascii_type
          Transient: no
          Array Rank:  3

    Sub Condition: pressure
      Type: hydrostatic
      Gradient:
        Dataset: Unnamed Ascii Dataset
          Type: dataset_ascii_type
          Transient: no
          Array Rank:  3
      Data:
        Dataset: Unnamed Ascii Dataset
          Type: dataset_ascii_type
          Transient: no
          Array Rank:  1

    Sub Condition: temperature
      Type: dirichlet
      Gradient:
      Data:
        Dataset: Unnamed Ascii Dataset
          Type: dataset_ascii_type
          Transient: no
          Array Rank:  1

--------------------------------------------------------------------------------

=+=+=+=+=+=+=+=+=+=+=+=+=+=+=+=+=+=+=+=+=+=+=+=+=+=+=+=+=+=+=+=+=+=+=+=+=+=+=+=+

  Boundary Condition

--------------------------------------------------------------------------------
          Flow Condition:   initial
                  Region:   south
--------------------------------------------------------------------------------

  Flow Condition: initial
    Synchronize time with update: no
    Time units: yr
    Length units: m
      Datum:
        Dataset: Unnamed Ascii Dataset
          Type: dataset_ascii_type
          Transient: no
          Array Rank:  3

    Sub Condition: pressure
      Type: hydrostatic
      Gradient:
        Dataset: Unnamed Ascii Dataset
          Type: dataset_ascii_type
          Transient: no
          Array Rank:  3
      Data:
        Dataset: Unnamed Ascii Dataset
          Type: dataset_ascii_type
          Transient: no
          Array Rank:  1

    Sub Condition: temperature
      Type: dirichlet
      Gradient:
      Data:
        Dataset: Unnamed Ascii Dataset
          Type: dataset_ascii_type
          Transient: no
          Array Rank:  1

--------------------------------------------------------------------------------

=+=+=+=+=+=+=+=+=+=+=+=+=+=+=+=+=+=+=+=+=+=+=+=+=+=+=+=+=+=+=+=+=+=+=+=+=+=+=+=+

  Source Sink

--------------------------------------------------------------------------------
          Flow Condition:   injection
                  Region:   heatpump_inject0
--------------------------------------------------------------------------------

  Flow Condition: injection
    Synchronize time with update: no
    Time units: yr
    Length units: m
      Datum:

    Sub Condition: rate
      Type: scaled volumetric rate
      Gradient:
      Data:
        Dataset: Unnamed Ascii Dataset
          Type: dataset_ascii_type
          Is transient?: yes
          Number of times:      3
          Is cyclic?: no
          Buffer:
            Rank:  2
            Dims:    1   3
            Buffer Slice Size:   0
          Array Rank:  1

    Sub Condition: temperature
      Type: dirichlet
      Gradient:
      Data:
        Dataset: Unnamed Ascii Dataset
          Type: dataset_ascii_type
          Transient: no
          Array Rank:  1

--------------------------------------------------------------------------------

 Requested processors =    32

FLOW Time Stepper
                 acceleration: on
       acceleration threshold: 5
       number of ramp entries: 5
                ramp entry #1: 2.0000
                ramp entry #2: 2.0000
                ramp entry #3: 2.0000
                ramp entry #4: 2.0000
                ramp entry #5: 2.0000
                ramp entry #6: 1.8000
                ramp entry #7: 1.6000
                ramp entry #8: 1.4000
                ramp entry #9: 1.2000
               ramp entry #10: 1.0000
               ramp entry #11: 1.0000
               ramp entry #12: 1.0000
               ramp entry #13: 1.0000
      maximum number of steps: 999999
constant time steps threshold: 5
       maximum number of cuts: 16
             reduction factor: 5.000000E-01
        maximum growth factor: 2.000000E+00

FLOW Newton Solver
                         atol: 1.000000E-50
                         rtol: 1.000000E-03
                         stol: 1.000000E-08
                         dtol: 1.000000E+04
                      maxnorm: 1.000000E+20
                    inftolres: -9.990000E+02
                    inftolupd: 1.000000E+00
                 inftolrelupd: -9.990000E+02
                 inftolsclres: -9.990000E+02
                     max iter: 50
                     min iter: 1
                         maxf: 10000
                  matrix type: baij
         precond. matrix type: baij
               inexact newton: off
            print convergence: on
   print detailed convergence: off
          check infinity norm: on

FLOW Linear Solver
                       solver: bcgs
               preconditioner: bjacobi
                         atol: 1.000000E-50
                         rtol: 1.000000E-05
                         dtol: 1.000000E+04
            maximum iteration: 10000

== TH FLOW =====================================================================
 Step      1 Time=  1.00000E-05 Dt=  1.00000E-05 [y] snes_conv_reason:   11
  newton =   1 [       1] linear =    93 [        93] cuts =  0 [   0]
  --> max chng: dpmx=   1.7751E-02 dtmpmx=   6.0957E-10

== TH FLOW =====================================================================
 Step      2 Time=  3.00000E-05 Dt=  2.00000E-05 [y] snes_conv_reason:   11
  newton =   1 [       2] linear =   100 [       193] cuts =  0 [   0]
  --> max chng: dpmx=   2.8066E-02 dtmpmx=   1.2098E-09

== TH FLOW =====================================================================
 Step      3 Time=  7.00000E-05 Dt=  4.00000E-05 [y] snes_conv_reason:   11
  newton =   1 [       3] linear =   111 [       304] cuts =  0 [   0]
  --> max chng: dpmx=   3.3223E-02 dtmpmx=   2.3910E-09

== TH FLOW =====================================================================
 Step      4 Time=  1.50000E-04 Dt=  8.00000E-05 [y] snes_conv_reason:   11
  newton =   1 [       4] linear =   113 [       417] cuts =  0 [   0]
  --> max chng: dpmx=   2.6895E-02 dtmpmx=   4.7325E-09

== TH FLOW =====================================================================
 Step      5 Time=  3.10000E-04 Dt=  1.60000E-04 [y] snes_conv_reason:   11
  newton =   1 [       5] linear =   123 [       540] cuts =  0 [   0]
  --> max chng: dpmx=   1.3527E-02 dtmpmx=   9.4146E-09

== TH FLOW =====================================================================
 Step      6 Time=  6.30000E-04 Dt=  3.20000E-04 [y] snes_conv_reason:   11
  newton =   1 [       6] linear =   127 [       667] cuts =  0 [   0]
  --> max chng: dpmx=   3.8849E-03 dtmpmx=   1.8800E-08

== TH FLOW =====================================================================
 Step      7 Time=  1.27000E-03 Dt=  6.40000E-04 [y] snes_conv_reason:   11
  newton =   1 [       7] linear =   128 [       795] cuts =  0 [   0]
  --> max chng: dpmx=   6.0085E-04 dtmpmx=   3.7592E-08

== TH FLOW =====================================================================
 Step      8 Time=  2.55000E-03 Dt=  1.28000E-03 [y] snes_conv_reason:   11
  newton =   1 [       8] linear =   132 [       927] cuts =  0 [   0]
  --> max chng: dpmx=   4.8188E-05 dtmpmx=   7.5184E-08

== TH FLOW =====================================================================
 Step      9 Time=  5.11000E-03 Dt=  2.56000E-03 [y] snes_conv_reason:   11
  newton =   1 [       9] linear =   121 [      1048] cuts =  0 [   0]
  --> max chng: dpmx=   1.6863E-06 dtmpmx=   1.5037E-07

== TH FLOW =====================================================================
 Step     10 Time=  1.02300E-02 Dt=  5.12000E-03 [y] snes_conv_reason:   11
  newton =   1 [      10] linear =   118 [      1166] cuts =  0 [   0]
  --> max chng: dpmx=   1.2303E-06 dtmpmx=   3.0074E-07

== TH FLOW =====================================================================
 Step     11 Time=  2.04700E-02 Dt=  1.02400E-02 [y] snes_conv_reason:   11
  newton =   1 [      11] linear =   117 [      1283] cuts =  0 [   0]
  --> max chng: dpmx=   2.5104E-06 dtmpmx=   6.0147E-07

== TH FLOW =====================================================================
 Step     12 Time=  4.09500E-02 Dt=  2.04800E-02 [y] snes_conv_reason:   11
  newton =   1 [      12] linear =   132 [      1415] cuts =  0 [   0]
  --> max chng: dpmx=   5.2024E-06 dtmpmx=   1.2029E-06

== TH FLOW =====================================================================
 Step     13 Time=  8.19100E-02 Dt=  4.09600E-02 [y] snes_conv_reason:   11
  newton =   1 [      13] linear =   117 [      1532] cuts =  0 [   0]
  --> max chng: dpmx=   1.1139E-05 dtmpmx=   2.4059E-06

== TH FLOW =====================================================================
 Step     14 Time=  1.00000E-01 Dt=  1.80900E-02 [y] snes_conv_reason:   11
  newton =   1 [      14] linear =   128 [      1660] cuts =  0 [   0]
  --> max chng: dpmx=   5.0599E-06 dtmpmx=   1.0626E-06

== TH FLOW =====================================================================
 Step     15 Time=  1.50000E-01 Dt=  5.00000E-02 [y] snes_conv_reason:   11
  newton =   1 [      15] linear =   126 [      1786] cuts =  0 [   0]
  --> max chng: dpmx=   1.5081E-05 dtmpmx=   2.9369E-06

== TH FLOW =====================================================================
 Step     16 Time=  2.00000E-01 Dt=  5.00000E-02 [y] snes_conv_reason:   11
  newton =   1 [      16] linear =   125 [      1911] cuts =  0 [   0]
  --> max chng: dpmx=   1.6136E-05 dtmpmx=   2.9369E-06

== TH FLOW =====================================================================
 Step     17 Time=  2.50000E-01 Dt=  5.00000E-02 [y] snes_conv_reason:    3
  newton =   4 [      20] linear =   526 [      2437] cuts =  0 [   0]
  --> max chng: dpmx=   6.1460E+03 dtmpmx=   3.5020E+00

== TH FLOW =====================================================================
 Step     18 Time=  3.00000E-01 Dt=  5.00000E-02 [y] snes_conv_reason:   11
  newton =   2 [      22] linear =   258 [      2695] cuts =  0 [   0]
  --> max chng: dpmx=   3.9347E+01 dtmpmx=   1.2182E+00

== TH FLOW =====================================================================
 Step     19 Time=  3.50000E-01 Dt=  5.00000E-02 [y] snes_conv_reason:   11
  newton =   2 [      24] linear =   265 [      2960] cuts =  0 [   0]
  --> max chng: dpmx=   1.9843E+01 dtmpmx=   8.5411E-01

== TH FLOW =====================================================================
 Step     20 Time=  4.00000E-01 Dt=  5.00000E-02 [y] snes_conv_reason:   11
  newton =   2 [      26] linear =   256 [      3216] cuts =  0 [   0]
  --> max chng: dpmx=   1.2213E+01 dtmpmx=   6.2891E-01

== TH FLOW =====================================================================
 Step     21 Time=  4.50000E-01 Dt=  5.00000E-02 [y] snes_conv_reason:   11
  newton =   2 [      28] linear =   271 [      3487] cuts =  0 [   0]
  --> max chng: dpmx=   8.7989E+00 dtmpmx=   5.5069E-01

== TH FLOW =====================================================================
 Step     22 Time=  5.00000E-01 Dt=  5.00000E-02 [y] snes_conv_reason:    3
  newton =   1 [      29] linear =   131 [      3618] cuts =  0 [   0]
  --> max chng: dpmx=   6.9757E+00 dtmpmx=   4.5975E-01

== TH FLOW =====================================================================
 Step     23 Time=  5.50000E-01 Dt=  5.00000E-02 [y] snes_conv_reason:    3
  newton =   1 [      30] linear =   136 [      3754] cuts =  0 [   0]
  --> max chng: dpmx=   5.7320E+00 dtmpmx=   3.9664E-01

== TH FLOW =====================================================================
 Step     24 Time=  6.00000E-01 Dt=  5.00000E-02 [y] snes_conv_reason:    3
  newton =   1 [      31] linear =   131 [      3885] cuts =  0 [   0]
  --> max chng: dpmx=   4.8933E+00 dtmpmx=   3.7288E-01

== TH FLOW =====================================================================
 Step     25 Time=  6.50000E-01 Dt=  5.00000E-02 [y] snes_conv_reason:    3
  newton =   1 [      32] linear =   134 [      4019] cuts =  0 [   0]
  --> max chng: dpmx=   4.2564E+00 dtmpmx=   3.4120E-01

== TH FLOW =====================================================================
 Step     26 Time=  7.00000E-01 Dt=  5.00000E-02 [y] snes_conv_reason:    3
  newton =   1 [      33] linear =   130 [      4149] cuts =  0 [   0]
  --> max chng: dpmx=   3.7650E+00 dtmpmx=   3.0594E-01

== TH FLOW =====================================================================
 Step     27 Time=  7.50000E-01 Dt=  5.00000E-02 [y] snes_conv_reason:    3
  newton =   1 [      34] linear =   135 [      4284] cuts =  0 [   0]
  --> max chng: dpmx=   3.3714E+00 dtmpmx=   2.8090E-01

== TH FLOW =====================================================================
 Step     28 Time=  8.00000E-01 Dt=  5.00000E-02 [y] snes_conv_reason:    3
  newton =   1 [      35] linear =   134 [      4418] cuts =  0 [   0]
  --> max chng: dpmx=   3.0508E+00 dtmpmx=   2.7107E-01

== TH FLOW =====================================================================
 Step     29 Time=  8.50000E-01 Dt=  5.00000E-02 [y] snes_conv_reason:    3
  newton =   1 [      36] linear =   133 [      4551] cuts =  0 [   0]
  --> max chng: dpmx=   2.7804E+00 dtmpmx=   2.5746E-01

== TH FLOW =====================================================================
 Step     30 Time=  9.00000E-01 Dt=  5.00000E-02 [y] snes_conv_reason:    3
  newton =   1 [      37] linear =   134 [      4685] cuts =  0 [   0]
  --> max chng: dpmx=   2.5520E+00 dtmpmx=   2.4135E-01

== TH FLOW =====================================================================
 Step     31 Time=  9.50000E-01 Dt=  5.00000E-02 [y] snes_conv_reason:    3
  newton =   1 [      38] linear =   135 [      4820] cuts =  0 [   0]
  --> max chng: dpmx=   2.3552E+00 dtmpmx=   2.2409E-01

== TH FLOW =====================================================================
 Step     32 Time=  1.00000E+00 Dt=  5.00000E-02 [y] snes_conv_reason:    3
  newton =   1 [      39] linear =   135 [      4955] cuts =  0 [   0]
  --> max chng: dpmx=   2.1846E+00 dtmpmx=   2.1513E-01

== TH FLOW =====================================================================
 Step     33 Time=  1.05000E+00 Dt=  5.00000E-02 [y] snes_conv_reason:    3
  newton =   1 [      40] linear =   138 [      5093] cuts =  0 [   0]
  --> max chng: dpmx=   2.0380E+00 dtmpmx=   2.0961E-01

== TH FLOW =====================================================================
 Step     34 Time=  1.10000E+00 Dt=  5.00000E-02 [y] snes_conv_reason:    3
  newton =   1 [      41] linear =   134 [      5227] cuts =  0 [   0]
  --> max chng: dpmx=   1.9084E+00 dtmpmx=   2.0223E-01

== TH FLOW =====================================================================
 Step     35 Time=  1.15000E+00 Dt=  5.00000E-02 [y] snes_conv_reason:    3
  newton =   1 [      42] linear =   137 [      5364] cuts =  0 [   0]
  --> max chng: dpmx=   1.7901E+00 dtmpmx=   1.9344E-01

== TH FLOW =====================================================================
 Step     36 Time=  1.20000E+00 Dt=  5.00000E-02 [y] snes_conv_reason:    3
  newton =   1 [      43] linear =   136 [      5500] cuts =  0 [   0]
  --> max chng: dpmx=   1.6859E+00 dtmpmx=   1.8366E-01

== TH FLOW =====================================================================
 Step     37 Time=  1.25000E+00 Dt=  5.00000E-02 [y] snes_conv_reason:    3
  newton =   1 [      44] linear =   138 [      5638] cuts =  0 [   0]
  --> max chng: dpmx=   1.5914E+00 dtmpmx=   1.7394E-01

== TH FLOW =====================================================================
 Step     38 Time=  1.30000E+00 Dt=  5.00000E-02 [y] snes_conv_reason:    3
  newton =   1 [      45] linear =   137 [      5775] cuts =  0 [   0]
  --> max chng: dpmx=   1.5567E+00 dtmpmx=   1.7080E-01

== TH FLOW =====================================================================
 Step     39 Time=  1.35000E+00 Dt=  5.00000E-02 [y] snes_conv_reason:    3
  newton =   1 [      46] linear =   136 [      5911] cuts =  0 [   0]
  --> max chng: dpmx=   1.5524E+00 dtmpmx=   1.6740E-01

== TH FLOW =====================================================================
 Step     40 Time=  1.40000E+00 Dt=  5.00000E-02 [y] snes_conv_reason:    3
  newton =   1 [      47] linear =   136 [      6047] cuts =  0 [   0]
  --> max chng: dpmx=   1.5460E+00 dtmpmx=   1.6301E-01

== TH FLOW =====================================================================
 Step     41 Time=  1.45000E+00 Dt=  5.00000E-02 [y] snes_conv_reason:    3
  newton =   1 [      48] linear =   134 [      6181] cuts =  0 [   0]
  --> max chng: dpmx=   1.5372E+00 dtmpmx=   1.5783E-01

== TH FLOW =====================================================================
 Step     42 Time=  1.50000E+00 Dt=  5.00000E-02 [y] snes_conv_reason:    3
  newton =   1 [      49] linear =   133 [      6314] cuts =  0 [   0]
  --> max chng: dpmx=   1.5261E+00 dtmpmx=   1.5202E-01

== TH FLOW =====================================================================
 Step     43 Time=  1.55000E+00 Dt=  5.00000E-02 [y] snes_conv_reason:    3
  newton =   1 [      50] linear =   133 [      6447] cuts =  0 [   0]
  --> max chng: dpmx=   1.5221E+00 dtmpmx=   1.4574E-01

== TH FLOW =====================================================================
 Step     44 Time=  1.60000E+00 Dt=  5.00000E-02 [y] snes_conv_reason:    3
  newton =   1 [      51] linear =   132 [      6579] cuts =  0 [   0]
  --> max chng: dpmx=   1.5208E+00 dtmpmx=   1.4162E-01

== TH FLOW =====================================================================
 Step     45 Time=  1.65000E+00 Dt=  5.00000E-02 [y] snes_conv_reason:    3
  newton =   1 [      52] linear =   131 [      6710] cuts =  0 [   0]
  --> max chng: dpmx=   1.5175E+00 dtmpmx=   1.3993E-01

== TH FLOW =====================================================================
 Step     46 Time=  1.70000E+00 Dt=  5.00000E-02 [y] snes_conv_reason:    3
  newton =   1 [      53] linear =   135 [      6845] cuts =  0 [   0]
  --> max chng: dpmx=   1.5112E+00 dtmpmx=   1.3761E-01

== TH FLOW =====================================================================
 Step     47 Time=  1.75000E+00 Dt=  5.00000E-02 [y] snes_conv_reason:    3
  newton =   1 [      54] linear =   135 [      6980] cuts =  0 [   0]
  --> max chng: dpmx=   1.5063E+00 dtmpmx=   1.3474E-01

== TH FLOW =====================================================================
 Step     48 Time=  1.80000E+00 Dt=  5.00000E-02 [y] snes_conv_reason:    3
  newton =   1 [      55] linear =   133 [      7113] cuts =  0 [   0]
  --> max chng: dpmx=   1.4983E+00 dtmpmx=   1.3141E-01

== TH FLOW =====================================================================
 Step     49 Time=  1.85000E+00 Dt=  5.00000E-02 [y] snes_conv_reason:    3
  newton =   1 [      56] linear =   133 [      7246] cuts =  0 [   0]
  --> max chng: dpmx=   1.4972E+00 dtmpmx=   1.2768E-01

== TH FLOW =====================================================================
 Step     50 Time=  1.90000E+00 Dt=  5.00000E-02 [y] snes_conv_reason:    3
  newton =   1 [      57] linear =   136 [      7382] cuts =  0 [   0]
  --> max chng: dpmx=   1.4957E+00 dtmpmx=   1.2364E-01

== TH FLOW =====================================================================
 Step     51 Time=  1.95000E+00 Dt=  5.00000E-02 [y] snes_conv_reason:    3
  newton =   1 [      58] linear =   136 [      7518] cuts =  0 [   0]
  --> max chng: dpmx=   1.4941E+00 dtmpmx=   1.2088E-01

== TH FLOW =====================================================================
 Step     52 Time=  2.00000E+00 Dt=  5.00000E-02 [y] snes_conv_reason:    3
  newton =   1 [      59] linear =   132 [      7650] cuts =  0 [   0]
  --> max chng: dpmx=   1.4913E+00 dtmpmx=   1.1950E-01

== TH FLOW =====================================================================
 Step     53 Time=  2.05000E+00 Dt=  5.00000E-02 [y] snes_conv_reason:    3
  newton =   1 [      60] linear =   132 [      7782] cuts =  0 [   0]
  --> max chng: dpmx=   1.4859E+00 dtmpmx=   1.1772E-01

== TH FLOW =====================================================================
 Step     54 Time=  2.10000E+00 Dt=  5.00000E-02 [y] snes_conv_reason:    3
  newton =   1 [      61] linear =   135 [      7917] cuts =  0 [   0]
  --> max chng: dpmx=   1.4800E+00 dtmpmx=   1.1593E-01

== TH FLOW =====================================================================
 Step     55 Time=  2.15000E+00 Dt=  5.00000E-02 [y] snes_conv_reason:    3
  newton =   1 [      62] linear =   135 [      8052] cuts =  0 [   0]
  --> max chng: dpmx=   1.4796E+00 dtmpmx=   1.1387E-01

== TH FLOW =====================================================================
 Step     56 Time=  2.20000E+00 Dt=  5.00000E-02 [y] snes_conv_reason:    3
  newton =   1 [      63] linear =   135 [      8187] cuts =  0 [   0]
  --> max chng: dpmx=   1.4791E+00 dtmpmx=   1.1151E-01

== TH FLOW =====================================================================
 Step     57 Time=  2.25000E+00 Dt=  5.00000E-02 [y] snes_conv_reason:    3
  newton =   1 [      64] linear =   138 [      8325] cuts =  0 [   0]
  --> max chng: dpmx=   1.4779E+00 dtmpmx=   1.0891E-01

== TH FLOW =====================================================================
 Step     58 Time=  2.30000E+00 Dt=  5.00000E-02 [y] snes_conv_reason:    3
  newton =   1 [      65] linear =   135 [      8460] cuts =  0 [   0]
  --> max chng: dpmx=   1.4756E+00 dtmpmx=   1.0611E-01

== TH FLOW =====================================================================
 Step     59 Time=  2.35000E+00 Dt=  5.00000E-02 [y] snes_conv_reason:    3
  newton =   1 [      66] linear =   136 [      8596] cuts =  0 [   0]
  --> max chng: dpmx=   1.4722E+00 dtmpmx=   1.0491E-01

== TH FLOW =====================================================================
 Step     60 Time=  2.40000E+00 Dt=  5.00000E-02 [y] snes_conv_reason:    3
  newton =   1 [      67] linear =   137 [      8733] cuts =  0 [   0]
  --> max chng: dpmx=   1.4688E+00 dtmpmx=   1.0379E-01

== TH FLOW =====================================================================
 Step     61 Time=  2.45000E+00 Dt=  5.00000E-02 [y] snes_conv_reason:    3
  newton =   1 [      68] linear =   138 [      8871] cuts =  0 [   0]
  --> max chng: dpmx=   1.4669E+00 dtmpmx=   1.0243E-01

== TH FLOW =====================================================================
 Step     62 Time=  2.50000E+00 Dt=  5.00000E-02 [y] snes_conv_reason:    3
  newton =   1 [      69] linear =   117 [      8988] cuts =  0 [   0]
  --> max chng: dpmx=   1.4672E+00 dtmpmx=   1.0103E-01

== TH FLOW =====================================================================
 Step     63 Time=  2.55000E+00 Dt=  5.00000E-02 [y] snes_conv_reason:    3
  newton =   1 [      70] linear =   120 [      9108] cuts =  0 [   0]
  --> max chng: dpmx=   1.4662E+00 dtmpmx=   9.9598E-02

== TH FLOW =====================================================================
 Step     64 Time=  2.60000E+00 Dt=  5.00000E-02 [y] snes_conv_reason:    3
  newton =   1 [      71] linear =   127 [      9235] cuts =  0 [   0]
  --> max chng: dpmx=   1.4656E+00 dtmpmx=   9.7967E-02

== TH FLOW =====================================================================
 Step     65 Time=  2.65000E+00 Dt=  5.00000E-02 [y] snes_conv_reason:    3
  newton =   1 [      72] linear =   135 [      9370] cuts =  0 [   0]
  --> max chng: dpmx=   1.4634E+00 dtmpmx=   9.6159E-02

== TH FLOW =====================================================================
 Step     66 Time=  2.70000E+00 Dt=  5.00000E-02 [y] snes_conv_reason:    3
  newton =   1 [      73] linear =   136 [      9506] cuts =  0 [   0]
  --> max chng: dpmx=   1.4606E+00 dtmpmx=   9.4193E-02

== TH FLOW =====================================================================
 Step     67 Time=  2.75000E+00 Dt=  5.00000E-02 [y] snes_conv_reason:    3
  newton =   1 [      74] linear =   137 [      9643] cuts =  0 [   0]
  --> max chng: dpmx=   1.4575E+00 dtmpmx=   9.2978E-02

== TH FLOW =====================================================================
 Step     68 Time=  2.80000E+00 Dt=  5.00000E-02 [y] snes_conv_reason:    3
  newton =   1 [      75] linear =   135 [      9778] cuts =  0 [   0]
  --> max chng: dpmx=   1.4580E+00 dtmpmx=   9.2170E-02

== TH FLOW =====================================================================
 Step     69 Time=  2.85000E+00 Dt=  5.00000E-02 [y] snes_conv_reason:    3
  newton =   1 [      76] linear =   135 [      9913] cuts =  0 [   0]
  --> max chng: dpmx=   1.4588E+00 dtmpmx=   9.1180E-02

== TH FLOW =====================================================================
 Step     70 Time=  2.90000E+00 Dt=  5.00000E-02 [y] snes_conv_reason:    3
  newton =   1 [      77] linear =   138 [     10051] cuts =  0 [   0]
  --> max chng: dpmx=   1.4579E+00 dtmpmx=   9.0124E-02

== TH FLOW =====================================================================
 Step     71 Time=  2.95000E+00 Dt=  5.00000E-02 [y] snes_conv_reason:    3
  newton =   1 [      78] linear =   134 [     10185] cuts =  0 [   0]
  --> max chng: dpmx=   1.4569E+00 dtmpmx=   8.9162E-02

== TH FLOW =====================================================================
 Step     72 Time=  3.00000E+00 Dt=  5.00000E-02 [y] snes_conv_reason:    3
  newton =   1 [      79] linear =   137 [     10322] cuts =  0 [   0]
  --> max chng: dpmx=   1.4554E+00 dtmpmx=   8.8048E-02

== TH FLOW =====================================================================
 Step     73 Time=  3.05000E+00 Dt=  5.00000E-02 [y] snes_conv_reason:    3
  newton =   1 [      80] linear =   137 [     10459] cuts =  0 [   0]
  --> max chng: dpmx=   1.4529E+00 dtmpmx=   8.6794E-02

== TH FLOW =====================================================================
 Step     74 Time=  3.10000E+00 Dt=  5.00000E-02 [y] snes_conv_reason:    3
  newton =   1 [      81] linear =   137 [     10596] cuts =  0 [   0]
  --> max chng: dpmx=   1.4516E+00 dtmpmx=   8.5414E-02

== TH FLOW =====================================================================
 Step     75 Time=  3.15000E+00 Dt=  5.00000E-02 [y] snes_conv_reason:    3
  newton =   1 [      82] linear =   137 [     10733] cuts =  0 [   0]
  --> max chng: dpmx=   1.4523E+00 dtmpmx=   8.4008E-02

== TH FLOW =====================================================================
 Step     76 Time=  3.20000E+00 Dt=  5.00000E-02 [y] snes_conv_reason:    3
  newton =   1 [      83] linear =   137 [     10870] cuts =  0 [   0]
  --> max chng: dpmx=   1.4525E+00 dtmpmx=   8.3226E-02

== TH FLOW =====================================================================
 Step     77 Time=  3.25000E+00 Dt=  5.00000E-02 [y] snes_conv_reason:    3
  newton =   1 [      84] linear =   137 [     11007] cuts =  0 [   0]
  --> max chng: dpmx=   1.4522E+00 dtmpmx=   8.2544E-02

== TH FLOW =====================================================================
 Step     78 Time=  3.30000E+00 Dt=  5.00000E-02 [y] snes_conv_reason:    3
  newton =   1 [      85] linear =   124 [     11131] cuts =  0 [   0]
  --> max chng: dpmx=   1.4510E+00 dtmpmx=   8.1733E-02

== TH FLOW =====================================================================
 Step     79 Time=  3.35000E+00 Dt=  5.00000E-02 [y] snes_conv_reason:    3
  newton =   1 [      86] linear =   132 [     11263] cuts =  0 [   0]
  --> max chng: dpmx=   1.4499E+00 dtmpmx=   8.1086E-02

== TH FLOW =====================================================================
 Step     80 Time=  3.40000E+00 Dt=  5.00000E-02 [y] snes_conv_reason:    3
  newton =   1 [      87] linear =   134 [     11397] cuts =  0 [   0]
  --> max chng: dpmx=   1.4481E+00 dtmpmx=   8.0345E-02

== TH FLOW =====================================================================
 Step     81 Time=  3.45000E+00 Dt=  5.00000E-02 [y] snes_conv_reason:    3
  newton =   1 [      88] linear =   130 [     11527] cuts =  0 [   0]
  --> max chng: dpmx=   1.4472E+00 dtmpmx=   7.9489E-02

== TH FLOW =====================================================================
 Step     82 Time=  3.50000E+00 Dt=  5.00000E-02 [y] snes_conv_reason:    3
  newton =   1 [      89] linear =   135 [     11662] cuts =  0 [   0]
  --> max chng: dpmx=   1.4488E+00 dtmpmx=   7.8528E-02

== TH FLOW =====================================================================
 Step     83 Time=  3.55000E+00 Dt=  5.00000E-02 [y] snes_conv_reason:    3
  newton =   1 [      90] linear =   135 [     11797] cuts =  0 [   0]
  --> max chng: dpmx=   1.4485E+00 dtmpmx=   7.7470E-02

== TH FLOW =====================================================================
 Step     84 Time=  3.60000E+00 Dt=  5.00000E-02 [y] snes_conv_reason:    3
  newton =   1 [      91] linear =   136 [     11933] cuts =  0 [   0]
  --> max chng: dpmx=   1.4482E+00 dtmpmx=   7.6483E-02

== TH FLOW =====================================================================
 Step     85 Time=  3.65000E+00 Dt=  5.00000E-02 [y] snes_conv_reason:    3
  newton =   1 [      92] linear =   134 [     12067] cuts =  0 [   0]
  --> max chng: dpmx=   1.4479E+00 dtmpmx=   7.5794E-02

== TH FLOW =====================================================================
 Step     86 Time=  3.70000E+00 Dt=  5.00000E-02 [y] snes_conv_reason:    3
  newton =   1 [      93] linear =   130 [     12197] cuts =  0 [   0]
  --> max chng: dpmx=   1.4463E+00 dtmpmx=   7.5093E-02

== TH FLOW =====================================================================
 Step     87 Time=  3.75000E+00 Dt=  5.00000E-02 [y] snes_conv_reason:    3
  newton =   1 [      94] linear =   135 [     12332] cuts =  0 [   0]
  --> max chng: dpmx=   1.4445E+00 dtmpmx=   7.4559E-02

== TH FLOW =====================================================================
 Step     88 Time=  3.80000E+00 Dt=  5.00000E-02 [y] snes_conv_reason:    3
  newton =   1 [      95] linear =   137 [     12469] cuts =  0 [   0]
  --> max chng: dpmx=   1.4454E+00 dtmpmx=   7.4090E-02

== TH FLOW =====================================================================
 Step     89 Time=  3.85000E+00 Dt=  5.00000E-02 [y] snes_conv_reason:    3
  newton =   1 [      96] linear =   134 [     12603] cuts =  0 [   0]
  --> max chng: dpmx=   1.4459E+00 dtmpmx=   7.3526E-02

== TH FLOW =====================================================================
 Step     90 Time=  3.90000E+00 Dt=  5.00000E-02 [y] snes_conv_reason:    3
  newton =   1 [      97] linear =   131 [     12734] cuts =  0 [   0]
  --> max chng: dpmx=   1.4458E+00 dtmpmx=   7.2873E-02

== TH FLOW =====================================================================
 Step     91 Time=  3.95000E+00 Dt=  5.00000E-02 [y] snes_conv_reason:    3
  newton =   1 [      98] linear =   136 [     12870] cuts =  0 [   0]
  --> max chng: dpmx=   1.4458E+00 dtmpmx=   7.2136E-02

== TH FLOW =====================================================================
 Step     92 Time=  4.00000E+00 Dt=  5.00000E-02 [y] snes_conv_reason:    3
  newton =   1 [      99] linear =   135 [     13005] cuts =  0 [   0]
  --> max chng: dpmx=   1.4452E+00 dtmpmx=   7.1321E-02

== TH FLOW =====================================================================
 Step     93 Time=  4.05000E+00 Dt=  5.00000E-02 [y] snes_conv_reason:    3
  newton =   1 [     100] linear =   137 [     13142] cuts =  0 [   0]
  --> max chng: dpmx=   1.4447E+00 dtmpmx=   7.0545E-02

== TH FLOW =====================================================================
 Step     94 Time=  4.10000E+00 Dt=  5.00000E-02 [y] snes_conv_reason:    3
  newton =   1 [     101] linear =   136 [     13278] cuts =  0 [   0]
  --> max chng: dpmx=   1.4435E+00 dtmpmx=   7.0039E-02

== TH FLOW =====================================================================
 Step     95 Time=  4.15000E+00 Dt=  5.00000E-02 [y] snes_conv_reason:    3
  newton =   1 [     102] linear =   131 [     13409] cuts =  0 [   0]
  --> max chng: dpmx=   1.4431E+00 dtmpmx=   6.9455E-02

== TH FLOW =====================================================================
 Step     96 Time=  4.20000E+00 Dt=  5.00000E-02 [y] snes_conv_reason:    3
  newton =   1 [     103] linear =   136 [     13545] cuts =  0 [   0]
  --> max chng: dpmx=   1.4442E+00 dtmpmx=   6.8841E-02

== TH FLOW =====================================================================
 Step     97 Time=  4.25000E+00 Dt=  5.00000E-02 [y] snes_conv_reason:    3
  newton =   1 [     104] linear =   133 [     13678] cuts =  0 [   0]
  --> max chng: dpmx=   1.4445E+00 dtmpmx=   6.8495E-02

== TH FLOW =====================================================================
 Step     98 Time=  4.30000E+00 Dt=  5.00000E-02 [y] snes_conv_reason:    3
  newton =   1 [     105] linear =   130 [     13808] cuts =  0 [   0]
  --> max chng: dpmx=   1.4440E+00 dtmpmx=   6.8072E-02

== TH FLOW =====================================================================
 Step     99 Time=  4.35000E+00 Dt=  5.00000E-02 [y] snes_conv_reason:    3
  newton =   1 [     106] linear =   133 [     13941] cuts =  0 [   0]
  --> max chng: dpmx=   1.4443E+00 dtmpmx=   6.7575E-02

== TH FLOW =====================================================================
 Step    100 Time=  4.40000E+00 Dt=  5.00000E-02 [y] snes_conv_reason:    3
  newton =   1 [     107] linear =   134 [     14075] cuts =  0 [   0]
  --> max chng: dpmx=   1.4432E+00 dtmpmx=   6.7010E-02

== TH FLOW =====================================================================
 Step    101 Time=  4.45000E+00 Dt=  5.00000E-02 [y] snes_conv_reason:    3
  newton =   1 [     108] linear =   133 [     14208] cuts =  0 [   0]
  --> max chng: dpmx=   1.4419E+00 dtmpmx=   6.6379E-02

== TH FLOW =====================================================================
 Step    102 Time=  4.50000E+00 Dt=  5.00000E-02 [y] snes_conv_reason:    3
  newton =   1 [     109] linear =   134 [     14342] cuts =  0 [   0]
  --> max chng: dpmx=   1.4423E+00 dtmpmx=   6.5704E-02

== TH FLOW =====================================================================
 Step    103 Time=  4.55000E+00 Dt=  5.00000E-02 [y] snes_conv_reason:    3
  newton =   1 [     110] linear =   133 [     14475] cuts =  0 [   0]
  --> max chng: dpmx=   1.4434E+00 dtmpmx=   6.5337E-02

== TH FLOW =====================================================================
 Step    104 Time=  4.60000E+00 Dt=  5.00000E-02 [y] snes_conv_reason:    3
  newton =   1 [     111] linear =   132 [     14607] cuts =  0 [   0]
  --> max chng: dpmx=   1.4434E+00 dtmpmx=   6.4905E-02

== TH FLOW =====================================================================
 Step    105 Time=  4.65000E+00 Dt=  5.00000E-02 [y] snes_conv_reason:    3
  newton =   1 [     112] linear =   133 [     14740] cuts =  0 [   0]
  --> max chng: dpmx=   1.4435E+00 dtmpmx=   6.4412E-02

== TH FLOW =====================================================================
 Step    106 Time=  4.70000E+00 Dt=  5.00000E-02 [y] snes_conv_reason:    3
  newton =   1 [     113] linear =   133 [     14873] cuts =  0 [   0]
  --> max chng: dpmx=   1.4432E+00 dtmpmx=   6.3897E-02

== TH FLOW =====================================================================
 Step    107 Time=  4.75000E+00 Dt=  5.00000E-02 [y] snes_conv_reason:    3
  newton =   1 [     114] linear =   133 [     15006] cuts =  0 [   0]
  --> max chng: dpmx=   1.4429E+00 dtmpmx=   6.3584E-02

== TH FLOW =====================================================================
 Step    108 Time=  4.80000E+00 Dt=  5.00000E-02 [y] snes_conv_reason:    3
  newton =   1 [     115] linear =   134 [     15140] cuts =  0 [   0]
  --> max chng: dpmx=   1.4418E+00 dtmpmx=   6.3210E-02

== TH FLOW =====================================================================
 Step    109 Time=  4.85000E+00 Dt=  5.00000E-02 [y] snes_conv_reason:    3
  newton =   1 [     116] linear =   132 [     15272] cuts =  0 [   0]
  --> max chng: dpmx=   1.4420E+00 dtmpmx=   6.2778E-02

== TH FLOW =====================================================================
 Step    110 Time=  4.90000E+00 Dt=  5.00000E-02 [y] snes_conv_reason:    3
  newton =   1 [     117] linear =   136 [     15408] cuts =  0 [   0]
  --> max chng: dpmx=   1.4421E+00 dtmpmx=   6.2290E-02

== TH FLOW =====================================================================
 Step    111 Time=  4.95000E+00 Dt=  5.00000E-02 [y] snes_conv_reason:    3
  newton =   1 [     118] linear =   134 [     15542] cuts =  0 [   0]
  --> max chng: dpmx=   1.4430E+00 dtmpmx=   6.1749E-02

== TH FLOW =====================================================================
 Step    112 Time=  5.00000E+00 Dt=  5.00000E-02 [y] snes_conv_reason:    3
  newton =   1 [     119] linear =   133 [     15675] cuts =  0 [   0]
  --> max chng: dpmx=   1.4431E+00 dtmpmx=   6.1397E-02

== TH FLOW =====================================================================
 Step    113 Time=  5.05000E+00 Dt=  5.00000E-02 [y] snes_conv_reason:    3
  newton =   1 [     120] linear =   133 [     15808] cuts =  0 [   0]
  --> max chng: dpmx=   1.4431E+00 dtmpmx=   6.1081E-02

== TH FLOW =====================================================================
 Step    114 Time=  5.10000E+00 Dt=  5.00000E-02 [y] snes_conv_reason:    3
  newton =   1 [     121] linear =   134 [     15942] cuts =  0 [   0]
  --> max chng: dpmx=   1.4424E+00 dtmpmx=   6.0713E-02

== TH FLOW =====================================================================
 Step    115 Time=  5.15000E+00 Dt=  5.00000E-02 [y] snes_conv_reason:    3
  newton =   1 [     122] linear =   136 [     16078] cuts =  0 [   0]
  --> max chng: dpmx=   1.4421E+00 dtmpmx=   6.0293E-02

== TH FLOW =====================================================================
 Step    116 Time=  5.20000E+00 Dt=  5.00000E-02 [y] snes_conv_reason:    3
  newton =   1 [     123] linear =   137 [     16215] cuts =  0 [   0]
  --> max chng: dpmx=   1.4414E+00 dtmpmx=   5.9825E-02

== TH FLOW =====================================================================
 Step    117 Time=  5.25000E+00 Dt=  5.00000E-02 [y] snes_conv_reason:    3
  newton =   1 [     124] linear =   138 [     16353] cuts =  0 [   0]
  --> max chng: dpmx=   1.4422E+00 dtmpmx=   5.9529E-02

== TH FLOW =====================================================================
 Step    118 Time=  5.30000E+00 Dt=  5.00000E-02 [y] snes_conv_reason:    3
  newton =   1 [     125] linear =   135 [     16488] cuts =  0 [   0]
  --> max chng: dpmx=   1.4428E+00 dtmpmx=   5.9201E-02

== TH FLOW =====================================================================
 Step    119 Time=  5.35000E+00 Dt=  5.00000E-02 [y] snes_conv_reason:    3
  newton =   1 [     126] linear =   138 [     16626] cuts =  0 [   0]
  --> max chng: dpmx=   1.4426E+00 dtmpmx=   5.8825E-02

== TH FLOW =====================================================================
 Step    120 Time=  5.40000E+00 Dt=  5.00000E-02 [y] snes_conv_reason:    3
  newton =   1 [     127] linear =   137 [     16763] cuts =  0 [   0]
  --> max chng: dpmx=   1.4430E+00 dtmpmx=   5.8403E-02

== TH FLOW =====================================================================
 Step    121 Time=  5.45000E+00 Dt=  5.00000E-02 [y] snes_conv_reason:    3
  newton =   1 [     128] linear =   138 [     16901] cuts =  0 [   0]
  --> max chng: dpmx=   1.4425E+00 dtmpmx=   5.8027E-02

== TH FLOW =====================================================================
 Step    122 Time=  5.50000E+00 Dt=  5.00000E-02 [y] snes_conv_reason:    3
  newton =   1 [     129] linear =   140 [     17041] cuts =  0 [   0]
  --> max chng: dpmx=   1.4422E+00 dtmpmx=   5.7802E-02

== TH FLOW =====================================================================
 Step    123 Time=  5.55000E+00 Dt=  5.00000E-02 [y] snes_conv_reason:    3
  newton =   1 [     130] linear =   137 [     17178] cuts =  0 [   0]
  --> max chng: dpmx=   1.4414E+00 dtmpmx=   5.7531E-02

== TH FLOW =====================================================================
 Step    124 Time=  5.60000E+00 Dt=  5.00000E-02 [y] snes_conv_reason:    3
  newton =   1 [     131] linear =   138 [     17316] cuts =  0 [   0]
  --> max chng: dpmx=   1.4420E+00 dtmpmx=   5.7215E-02

== TH FLOW =====================================================================
 Step    125 Time=  5.65000E+00 Dt=  5.00000E-02 [y] snes_conv_reason:    3
  newton =   1 [     132] linear =   137 [     17453] cuts =  0 [   0]
  --> max chng: dpmx=   1.4421E+00 dtmpmx=   5.6855E-02

== TH FLOW =====================================================================
 Step    126 Time=  5.70000E+00 Dt=  5.00000E-02 [y] snes_conv_reason:    3
  newton =   1 [     133] linear =   138 [     17591] cuts =  0 [   0]
  --> max chng: dpmx=   1.4432E+00 dtmpmx=   5.6455E-02

== TH FLOW =====================================================================
 Step    127 Time=  5.75000E+00 Dt=  5.00000E-02 [y] snes_conv_reason:    3
  newton =   1 [     134] linear =   138 [     17729] cuts =  0 [   0]
  --> max chng: dpmx=   1.4429E+00 dtmpmx=   5.6122E-02

== TH FLOW =====================================================================
 Step    128 Time=  5.80000E+00 Dt=  5.00000E-02 [y] snes_conv_reason:    3
  newton =   1 [     135] linear =   138 [     17867] cuts =  0 [   0]
  --> max chng: dpmx=   1.4425E+00 dtmpmx=   5.5835E-02

== TH FLOW =====================================================================
 Step    129 Time=  5.85000E+00 Dt=  5.00000E-02 [y] snes_conv_reason:    3
  newton =   1 [     136] linear =   135 [     18002] cuts =  0 [   0]
  --> max chng: dpmx=   1.4423E+00 dtmpmx=   5.5507E-02

== TH FLOW =====================================================================
 Step    130 Time=  5.90000E+00 Dt=  5.00000E-02 [y] snes_conv_reason:    3
  newton =   1 [     137] linear =   138 [     18140] cuts =  0 [   0]
  --> max chng: dpmx=   1.4422E+00 dtmpmx=   5.5141E-02

== TH FLOW =====================================================================
 Step    131 Time=  5.95000E+00 Dt=  5.00000E-02 [y] snes_conv_reason:    3
  newton =   1 [     138] linear =   134 [     18274] cuts =  0 [   0]
  --> max chng: dpmx=   1.4414E+00 dtmpmx=   5.4944E-02

== TH FLOW =====================================================================
 Step    132 Time=  6.00000E+00 Dt=  5.00000E-02 [y] snes_conv_reason:    3
  newton =   1 [     139] linear =   139 [     18413] cuts =  0 [   0]
  --> max chng: dpmx=   1.4427E+00 dtmpmx=   5.4750E-02

== TH FLOW =====================================================================
 Step    133 Time=  6.05000E+00 Dt=  5.00000E-02 [y] snes_conv_reason:    3
  newton =   1 [     140] linear =   138 [     18551] cuts =  0 [   0]
  --> max chng: dpmx=   1.4426E+00 dtmpmx=   5.4516E-02

== TH FLOW =====================================================================
 Step    134 Time=  6.10000E+00 Dt=  5.00000E-02 [y] snes_conv_reason:    3
  newton =   1 [     141] linear =   137 [     18688] cuts =  0 [   0]
  --> max chng: dpmx=   1.4428E+00 dtmpmx=   5.4244E-02

== TH FLOW =====================================================================
 Step    135 Time=  6.15000E+00 Dt=  5.00000E-02 [y] snes_conv_reason:    3
  newton =   1 [     142] linear =   139 [     18827] cuts =  0 [   0]
  --> max chng: dpmx=   1.4427E+00 dtmpmx=   5.3934E-02

== TH FLOW =====================================================================
 Step    136 Time=  6.20000E+00 Dt=  5.00000E-02 [y] snes_conv_reason:    3
  newton =   1 [     143] linear =   138 [     18965] cuts =  0 [   0]
  --> max chng: dpmx=   1.4427E+00 dtmpmx=   5.3589E-02

== TH FLOW =====================================================================
 Step    137 Time=  6.25000E+00 Dt=  5.00000E-02 [y] snes_conv_reason:    3
  newton =   1 [     144] linear =   138 [     19103] cuts =  0 [   0]
  --> max chng: dpmx=   1.4422E+00 dtmpmx=   5.3214E-02

== TH FLOW =====================================================================
 Step    138 Time=  6.30000E+00 Dt=  5.00000E-02 [y] snes_conv_reason:    3
  newton =   1 [     145] linear =   140 [     19243] cuts =  0 [   0]
  --> max chng: dpmx=   1.4415E+00 dtmpmx=   5.2963E-02

== TH FLOW =====================================================================
 Step    139 Time=  6.35000E+00 Dt=  5.00000E-02 [y] snes_conv_reason:    3
  newton =   1 [     146] linear =   138 [     19381] cuts =  0 [   0]
  --> max chng: dpmx=   1.4423E+00 dtmpmx=   5.2676E-02

== TH FLOW =====================================================================
 Step    140 Time=  6.40000E+00 Dt=  5.00000E-02 [y] snes_conv_reason:    3
  newton =   1 [     147] linear =   138 [     19519] cuts =  0 [   0]
  --> max chng: dpmx=   1.4425E+00 dtmpmx=   5.2456E-02

== TH FLOW =====================================================================
 Step    141 Time=  6.45000E+00 Dt=  5.00000E-02 [y] snes_conv_reason:    3
  newton =   1 [     148] linear =   138 [     19657] cuts =  0 [   0]
  --> max chng: dpmx=   1.4429E+00 dtmpmx=   5.2288E-02

== TH FLOW =====================================================================
 Step    142 Time=  6.50000E+00 Dt=  5.00000E-02 [y] snes_conv_reason:    3
  newton =   1 [     149] linear =   138 [     19795] cuts =  0 [   0]
  --> max chng: dpmx=   1.4427E+00 dtmpmx=   5.2120E-02

== TH FLOW =====================================================================
 Step    143 Time=  6.55000E+00 Dt=  5.00000E-02 [y] snes_conv_reason:    3
  newton =   1 [     150] linear =   137 [     19932] cuts =  0 [   0]
  --> max chng: dpmx=   1.4428E+00 dtmpmx=   5.1918E-02

== TH FLOW =====================================================================
 Step    144 Time=  6.60000E+00 Dt=  5.00000E-02 [y] snes_conv_reason:    3
  newton =   1 [     151] linear =   133 [     20065] cuts =  0 [   0]
  --> max chng: dpmx=   1.4422E+00 dtmpmx=   5.1682E-02

== TH FLOW =====================================================================
 Step    145 Time=  6.65000E+00 Dt=  5.00000E-02 [y] snes_conv_reason:    3
  newton =   1 [     152] linear =   138 [     20203] cuts =  0 [   0]
  --> max chng: dpmx=   1.4421E+00 dtmpmx=   5.1413E-02

== TH FLOW =====================================================================
 Step    146 Time=  6.70000E+00 Dt=  5.00000E-02 [y] snes_conv_reason:    3
  newton =   1 [     153] linear =   138 [     20341] cuts =  0 [   0]
  --> max chng: dpmx=   1.4418E+00 dtmpmx=   5.1114E-02

== TH FLOW =====================================================================
 Step    147 Time=  6.75000E+00 Dt=  5.00000E-02 [y] snes_conv_reason:    3
  newton =   1 [     154] linear =   137 [     20478] cuts =  0 [   0]
  --> max chng: dpmx=   1.4423E+00 dtmpmx=   5.0784E-02

== TH FLOW =====================================================================
 Step    148 Time=  6.80000E+00 Dt=  5.00000E-02 [y] snes_conv_reason:    3
  newton =   1 [     155] linear =   138 [     20616] cuts =  0 [   0]
  --> max chng: dpmx=   1.4426E+00 dtmpmx=   5.0479E-02

== TH FLOW =====================================================================
 Step    149 Time=  6.85000E+00 Dt=  5.00000E-02 [y] snes_conv_reason:    3
  newton =   1 [     156] linear =   137 [     20753] cuts =  0 [   0]
  --> max chng: dpmx=   1.4428E+00 dtmpmx=   5.0274E-02

== TH FLOW =====================================================================
 Step    150 Time=  6.90000E+00 Dt=  5.00000E-02 [y] snes_conv_reason:    3
  newton =   1 [     157] linear =   136 [     20889] cuts =  0 [   0]
  --> max chng: dpmx=   1.4427E+00 dtmpmx=   5.0149E-02

== TH FLOW =====================================================================
 Step    151 Time=  6.95000E+00 Dt=  5.00000E-02 [y] snes_conv_reason:    3
  newton =   1 [     158] linear =   137 [     21026] cuts =  0 [   0]
  --> max chng: dpmx=   1.4425E+00 dtmpmx=   4.9993E-02

== TH FLOW =====================================================================
 Step    152 Time=  7.00000E+00 Dt=  5.00000E-02 [y] snes_conv_reason:    3
  newton =   1 [     159] linear =   133 [     21159] cuts =  0 [   0]
  --> max chng: dpmx=   1.4418E+00 dtmpmx=   4.9826E-02

== TH FLOW =====================================================================
 Step    153 Time=  7.05000E+00 Dt=  5.00000E-02 [y] snes_conv_reason:    3
  newton =   1 [     160] linear =   134 [     21293] cuts =  0 [   0]
  --> max chng: dpmx=   1.4418E+00 dtmpmx=   4.9650E-02

== TH FLOW =====================================================================
 Step    154 Time=  7.10000E+00 Dt=  5.00000E-02 [y] snes_conv_reason:    3
  newton =   1 [     161] linear =   135 [     21428] cuts =  0 [   0]
  --> max chng: dpmx=   1.4420E+00 dtmpmx=   4.9444E-02

== TH FLOW =====================================================================
 Step    155 Time=  7.15000E+00 Dt=  5.00000E-02 [y] snes_conv_reason:    3
  newton =   1 [     162] linear =   133 [     21561] cuts =  0 [   0]
  --> max chng: dpmx=   1.4421E+00 dtmpmx=   4.9210E-02

== TH FLOW =====================================================================
 Step    156 Time=  7.20000E+00 Dt=  5.00000E-02 [y] snes_conv_reason:    3
  newton =   1 [     163] linear =   133 [     21694] cuts =  0 [   0]
  --> max chng: dpmx=   1.4427E+00 dtmpmx=   4.8948E-02

== TH FLOW =====================================================================
 Step    157 Time=  7.25000E+00 Dt=  5.00000E-02 [y] snes_conv_reason:    3
  newton =   1 [     164] linear =   131 [     21825] cuts =  0 [   0]
  --> max chng: dpmx=   1.4426E+00 dtmpmx=   4.8660E-02

== TH FLOW =====================================================================
 Step    158 Time=  7.30000E+00 Dt=  5.00000E-02 [y] snes_conv_reason:    3
  newton =   1 [     165] linear =   133 [     21958] cuts =  0 [   0]
  --> max chng: dpmx=   1.4422E+00 dtmpmx=   4.8346E-02

== TH FLOW =====================================================================
 Step    159 Time=  7.35000E+00 Dt=  5.00000E-02 [y] snes_conv_reason:    3
  newton =   1 [     166] linear =   132 [     22090] cuts =  0 [   0]
  --> max chng: dpmx=   1.4422E+00 dtmpmx=   4.8218E-02

== TH FLOW =====================================================================
 Step    160 Time=  7.40000E+00 Dt=  5.00000E-02 [y] snes_conv_reason:    3
  newton =   1 [     167] linear =   132 [     22222] cuts =  0 [   0]
  --> max chng: dpmx=   1.4417E+00 dtmpmx=   4.8111E-02

== TH FLOW =====================================================================
 Step    161 Time=  7.45000E+00 Dt=  5.00000E-02 [y] snes_conv_reason:    3
  newton =   1 [     168] linear =   132 [     22354] cuts =  0 [   0]
  --> max chng: dpmx=   1.4413E+00 dtmpmx=   4.7976E-02

== TH FLOW =====================================================================
 Step    162 Time=  7.50000E+00 Dt=  5.00000E-02 [y] snes_conv_reason:    3
  newton =   1 [     169] linear =   132 [     22486] cuts =  0 [   0]
  --> max chng: dpmx=   1.4417E+00 dtmpmx=   4.7814E-02

== TH FLOW =====================================================================
 Step    163 Time=  7.55000E+00 Dt=  5.00000E-02 [y] snes_conv_reason:    3
  newton =   1 [     170] linear =   133 [     22619] cuts =  0 [   0]
  --> max chng: dpmx=   1.4420E+00 dtmpmx=   4.7648E-02

== TH FLOW =====================================================================
 Step    164 Time=  7.60000E+00 Dt=  5.00000E-02 [y] snes_conv_reason:    3
  newton =   1 [     171] linear =   132 [     22751] cuts =  0 [   0]
  --> max chng: dpmx=   1.4419E+00 dtmpmx=   4.7468E-02

== TH FLOW =====================================================================
 Step    165 Time=  7.65000E+00 Dt=  5.00000E-02 [y] snes_conv_reason:    3
  newton =   1 [     172] linear =   133 [     22884] cuts =  0 [   0]
  --> max chng: dpmx=   1.4423E+00 dtmpmx=   4.7263E-02

== TH FLOW =====================================================================
 Step    166 Time=  7.70000E+00 Dt=  5.00000E-02 [y] snes_conv_reason:    3
  newton =   1 [     173] linear =   135 [     23019] cuts =  0 [   0]
  --> max chng: dpmx=   1.4419E+00 dtmpmx=   4.7033E-02

== TH FLOW =====================================================================
 Step    167 Time=  7.75000E+00 Dt=  5.00000E-02 [y] snes_conv_reason:    3
  newton =   1 [     174] linear =   136 [     23155] cuts =  0 [   0]
  --> max chng: dpmx=   1.4415E+00 dtmpmx=   4.6779E-02

== TH FLOW =====================================================================
 Step    168 Time=  7.80000E+00 Dt=  5.00000E-02 [y] snes_conv_reason:    3
  newton =   1 [     175] linear =   132 [     23287] cuts =  0 [   0]
  --> max chng: dpmx=   1.4411E+00 dtmpmx=   4.6502E-02

== TH FLOW =====================================================================
 Step    169 Time=  7.85000E+00 Dt=  5.00000E-02 [y] snes_conv_reason:    3
  newton =   1 [     176] linear =   135 [     23422] cuts =  0 [   0]
  --> max chng: dpmx=   1.4412E+00 dtmpmx=   4.6387E-02

== TH FLOW =====================================================================
 Step    170 Time=  7.90000E+00 Dt=  5.00000E-02 [y] snes_conv_reason:    3
  newton =   1 [     177] linear =   136 [     23558] cuts =  0 [   0]
  --> max chng: dpmx=   1.4412E+00 dtmpmx=   4.6295E-02

== TH FLOW =====================================================================
 Step    171 Time=  7.95000E+00 Dt=  5.00000E-02 [y] snes_conv_reason:    3
  newton =   1 [     178] linear =   136 [     23694] cuts =  0 [   0]
  --> max chng: dpmx=   1.4414E+00 dtmpmx=   4.6178E-02

== TH FLOW =====================================================================
 Step    172 Time=  8.00000E+00 Dt=  5.00000E-02 [y] snes_conv_reason:    3
  newton =   1 [     179] linear =   137 [     23831] cuts =  0 [   0]
  --> max chng: dpmx=   1.4413E+00 dtmpmx=   4.6036E-02

== TH FLOW =====================================================================
 Step    173 Time=  8.05000E+00 Dt=  5.00000E-02 [y] snes_conv_reason:    3
  newton =   1 [     180] linear =   137 [     23968] cuts =  0 [   0]
  --> max chng: dpmx=   1.4416E+00 dtmpmx=   4.5871E-02

== TH FLOW =====================================================================
 Step    174 Time=  8.10000E+00 Dt=  5.00000E-02 [y] snes_conv_reason:    3
  newton =   1 [     181] linear =   139 [     24107] cuts =  0 [   0]
  --> max chng: dpmx=   1.4412E+00 dtmpmx=   4.5707E-02

== TH FLOW =====================================================================
 Step    175 Time=  8.15000E+00 Dt=  5.00000E-02 [y] snes_conv_reason:    3
  newton =   1 [     182] linear =   135 [     24242] cuts =  0 [   0]
  --> max chng: dpmx=   1.4410E+00 dtmpmx=   4.5526E-02

== TH FLOW =====================================================================
 Step    176 Time=  8.20000E+00 Dt=  5.00000E-02 [y] snes_conv_reason:    3
  newton =   1 [     183] linear =   136 [     24378] cuts =  0 [   0]
  --> max chng: dpmx=   1.4402E+00 dtmpmx=   4.5322E-02

== TH FLOW =====================================================================
 Step    177 Time=  8.25000E+00 Dt=  5.00000E-02 [y] snes_conv_reason:    3
  newton =   1 [     184] linear =   136 [     24514] cuts =  0 [   0]
  --> max chng: dpmx=   1.4404E+00 dtmpmx=   4.5097E-02

== TH FLOW =====================================================================
 Step    178 Time=  8.30000E+00 Dt=  5.00000E-02 [y] snes_conv_reason:    3
  newton =   1 [     185] linear =   137 [     24651] cuts =  0 [   0]
  --> max chng: dpmx=   1.4405E+00 dtmpmx=   4.4851E-02

== TH FLOW =====================================================================
 Step    179 Time=  8.35000E+00 Dt=  5.00000E-02 [y] snes_conv_reason:    3
  newton =   1 [     186] linear =   137 [     24788] cuts =  0 [   0]
  --> max chng: dpmx=   1.4405E+00 dtmpmx=   4.4742E-02

== TH FLOW =====================================================================
 Step    180 Time=  8.40000E+00 Dt=  5.00000E-02 [y] snes_conv_reason:    3
  newton =   1 [     187] linear =   135 [     24923] cuts =  0 [   0]
  --> max chng: dpmx=   1.4408E+00 dtmpmx=   4.4662E-02

== TH FLOW =====================================================================
 Step    181 Time=  8.45000E+00 Dt=  5.00000E-02 [y] snes_conv_reason:    3
  newton =   1 [     188] linear =   132 [     25055] cuts =  0 [   0]
  --> max chng: dpmx=   1.4403E+00 dtmpmx=   4.4561E-02

== TH FLOW =====================================================================
 Step    182 Time=  8.50000E+00 Dt=  5.00000E-02 [y] snes_conv_reason:    3
  newton =   1 [     189] linear =   135 [     25190] cuts =  0 [   0]
  --> max chng: dpmx=   1.4406E+00 dtmpmx=   4.4437E-02

== TH FLOW =====================================================================
 Step    183 Time=  8.55000E+00 Dt=  5.00000E-02 [y] snes_conv_reason:    3
  newton =   1 [     190] linear =   136 [     25326] cuts =  0 [   0]
  --> max chng: dpmx=   1.4398E+00 dtmpmx=   4.4292E-02

== TH FLOW =====================================================================
 Step    184 Time=  8.60000E+00 Dt=  5.00000E-02 [y] snes_conv_reason:    3
  newton =   1 [     191] linear =   132 [     25458] cuts =  0 [   0]
  --> max chng: dpmx=   1.4392E+00 dtmpmx=   4.4125E-02

== TH FLOW =====================================================================
 Step    185 Time=  8.65000E+00 Dt=  5.00000E-02 [y] snes_conv_reason:    3
  newton =   1 [     192] linear =   137 [     25595] cuts =  0 [   0]
  --> max chng: dpmx=   1.4397E+00 dtmpmx=   4.3963E-02

== TH FLOW =====================================================================
 Step    186 Time=  8.70000E+00 Dt=  5.00000E-02 [y] snes_conv_reason:    3
  newton =   1 [     193] linear =   136 [     25731] cuts =  0 [   0]
  --> max chng: dpmx=   1.4397E+00 dtmpmx=   4.3782E-02

== TH FLOW =====================================================================
 Step    187 Time=  8.75000E+00 Dt=  5.00000E-02 [y] snes_conv_reason:    3
  newton =   1 [     194] linear =   135 [     25866] cuts =  0 [   0]
  --> max chng: dpmx=   1.4398E+00 dtmpmx=   4.3582E-02

== TH FLOW =====================================================================
 Step    188 Time=  8.80000E+00 Dt=  5.00000E-02 [y] snes_conv_reason:    3
  newton =   1 [     195] linear =   135 [     26001] cuts =  0 [   0]
  --> max chng: dpmx=   1.4396E+00 dtmpmx=   4.3363E-02

== TH FLOW =====================================================================
 Step    189 Time=  8.85000E+00 Dt=  5.00000E-02 [y] snes_conv_reason:    3
  newton =   1 [     196] linear =   136 [     26137] cuts =  0 [   0]
  --> max chng: dpmx=   1.4393E+00 dtmpmx=   4.3254E-02

== TH FLOW =====================================================================
 Step    190 Time=  8.90000E+00 Dt=  5.00000E-02 [y] snes_conv_reason:    3
  newton =   1 [     197] linear =   133 [     26270] cuts =  0 [   0]
  --> max chng: dpmx=   1.4393E+00 dtmpmx=   4.3186E-02

== TH FLOW =====================================================================
 Step    191 Time=  8.95000E+00 Dt=  5.00000E-02 [y] snes_conv_reason:    3
  newton =   1 [     198] linear =   130 [     26400] cuts =  0 [   0]
  --> max chng: dpmx=   1.4387E+00 dtmpmx=   4.3097E-02

== TH FLOW =====================================================================
 Step    192 Time=  9.00000E+00 Dt=  5.00000E-02 [y] snes_conv_reason:    3
  newton =   1 [     199] linear =   121 [     26521] cuts =  0 [   0]
  --> max chng: dpmx=   1.4382E+00 dtmpmx=   4.2988E-02

== TH FLOW =====================================================================
 Step    193 Time=  9.05000E+00 Dt=  5.00000E-02 [y] snes_conv_reason:    3
  newton =   1 [     200] linear =   127 [     26648] cuts =  0 [   0]
  --> max chng: dpmx=   1.4384E+00 dtmpmx=   4.2860E-02

== TH FLOW =====================================================================
 Step    194 Time=  9.10000E+00 Dt=  5.00000E-02 [y] snes_conv_reason:    3
  newton =   1 [     201] linear =   128 [     26776] cuts =  0 [   0]
  --> max chng: dpmx=   1.4384E+00 dtmpmx=   4.2712E-02

== TH FLOW =====================================================================
 Step    195 Time=  9.15000E+00 Dt=  5.00000E-02 [y] snes_conv_reason:    3
  newton =   1 [     202] linear =   138 [     26914] cuts =  0 [   0]
  --> max chng: dpmx=   1.4387E+00 dtmpmx=   4.2548E-02

== TH FLOW =====================================================================
 Step    196 Time=  9.20000E+00 Dt=  5.00000E-02 [y] snes_conv_reason:    3
  newton =   1 [     203] linear =   136 [     27050] cuts =  0 [   0]
  --> max chng: dpmx=   1.4383E+00 dtmpmx=   4.2386E-02

== TH FLOW =====================================================================
 Step    197 Time=  9.25000E+00 Dt=  5.00000E-02 [y] snes_conv_reason:    3
  newton =   1 [     204] linear =   137 [     27187] cuts =  0 [   0]
  --> max chng: dpmx=   1.4382E+00 dtmpmx=   4.2207E-02

== TH FLOW =====================================================================
 Step    198 Time=  9.30000E+00 Dt=  5.00000E-02 [y] snes_conv_reason:    3
  newton =   1 [     205] linear =   134 [     27321] cuts =  0 [   0]
  --> max chng: dpmx=   1.4379E+00 dtmpmx=   4.2010E-02

== TH FLOW =====================================================================
 Step    199 Time=  9.35000E+00 Dt=  5.00000E-02 [y] snes_conv_reason:    3
  newton =   1 [     206] linear =   131 [     27452] cuts =  0 [   0]
  --> max chng: dpmx=   1.4372E+00 dtmpmx=   4.1900E-02

== TH FLOW =====================================================================
 Step    200 Time=  9.40000E+00 Dt=  5.00000E-02 [y] snes_conv_reason:    3
  newton =   1 [     207] linear =   129 [     27581] cuts =  0 [   0]
  --> max chng: dpmx=   1.4373E+00 dtmpmx=   4.1841E-02

== TH FLOW =====================================================================
 Step    201 Time=  9.45000E+00 Dt=  5.00000E-02 [y] snes_conv_reason:    3
  newton =   1 [     208] linear =   125 [     27706] cuts =  0 [   0]
  --> max chng: dpmx=   1.4371E+00 dtmpmx=   4.1764E-02

== TH FLOW =====================================================================
 Step    202 Time=  9.50000E+00 Dt=  5.00000E-02 [y] snes_conv_reason:    3
  newton =   1 [     209] linear =   134 [     27840] cuts =  0 [   0]
  --> max chng: dpmx=   1.4369E+00 dtmpmx=   4.1668E-02

== TH FLOW =====================================================================
 Step    203 Time=  9.55000E+00 Dt=  5.00000E-02 [y] snes_conv_reason:    3
  newton =   1 [     210] linear =   136 [     27976] cuts =  0 [   0]
  --> max chng: dpmx=   1.4372E+00 dtmpmx=   4.1554E-02

== TH FLOW =====================================================================
 Step    204 Time=  9.60000E+00 Dt=  5.00000E-02 [y] snes_conv_reason:    3
  newton =   1 [     211] linear =   124 [     28100] cuts =  0 [   0]
  --> max chng: dpmx=   1.4369E+00 dtmpmx=   4.1423E-02

== TH FLOW =====================================================================
 Step    205 Time=  9.65000E+00 Dt=  5.00000E-02 [y] snes_conv_reason:    3
  newton =   1 [     212] linear =   135 [     28235] cuts =  0 [   0]
  --> max chng: dpmx=   1.4367E+00 dtmpmx=   4.1274E-02

== TH FLOW =====================================================================
 Step    206 Time=  9.70000E+00 Dt=  5.00000E-02 [y] snes_conv_reason:    3
  newton =   1 [     213] linear =   136 [     28371] cuts =  0 [   0]
  --> max chng: dpmx=   1.4363E+00 dtmpmx=   4.1113E-02

== TH FLOW =====================================================================
 Step    207 Time=  9.75000E+00 Dt=  5.00000E-02 [y] snes_conv_reason:    3
  newton =   1 [     214] linear =   129 [     28500] cuts =  0 [   0]
  --> max chng: dpmx=   1.4354E+00 dtmpmx=   4.0952E-02

== TH FLOW =====================================================================
 Step    208 Time=  9.80000E+00 Dt=  5.00000E-02 [y] snes_conv_reason:    3
  newton =   1 [     215] linear =   129 [     28629] cuts =  0 [   0]
  --> max chng: dpmx=   1.4357E+00 dtmpmx=   4.0775E-02

== TH FLOW =====================================================================
 Step    209 Time=  9.85000E+00 Dt=  5.00000E-02 [y] snes_conv_reason:    3
  newton =   1 [     216] linear =   128 [     28757] cuts =  0 [   0]
  --> max chng: dpmx=   1.4358E+00 dtmpmx=   4.0661E-02

== TH FLOW =====================================================================
 Step    210 Time=  9.90000E+00 Dt=  5.00000E-02 [y] snes_conv_reason:    3
  newton =   1 [     217] linear =   132 [     28889] cuts =  0 [   0]
  --> max chng: dpmx=   1.4353E+00 dtmpmx=   4.0610E-02

== TH FLOW =====================================================================
 Step    211 Time=  9.95000E+00 Dt=  5.00000E-02 [y] snes_conv_reason:    3
  newton =   1 [     218] linear =   135 [     29024] cuts =  0 [   0]
  --> max chng: dpmx=   1.4355E+00 dtmpmx=   4.0543E-02

== TH FLOW =====================================================================
 Step    212 Time=  1.00000E+01 Dt=  5.00000E-02 [y] snes_conv_reason:    3
  newton =   1 [     219] linear =   136 [     29160] cuts =  0 [   0]
  --> max chng: dpmx=   1.4351E+00 dtmpmx=   4.0458E-02

== TH FLOW =====================================================================
 Step    213 Time=  1.00500E+01 Dt=  5.00000E-02 [y] snes_conv_reason:    3
  newton =   1 [     220] linear =   133 [     29293] cuts =  0 [   0]
  --> max chng: dpmx=   1.4352E+00 dtmpmx=   4.0357E-02

== TH FLOW =====================================================================
 Step    214 Time=  1.01000E+01 Dt=  5.00000E-02 [y] snes_conv_reason:    3
  newton =   1 [     221] linear =   134 [     29427] cuts =  0 [   0]
  --> max chng: dpmx=   1.4345E+00 dtmpmx=   4.0240E-02

== TH FLOW =====================================================================
 Step    215 Time=  1.01500E+01 Dt=  5.00000E-02 [y] snes_conv_reason:    3
  newton =   1 [     222] linear =   135 [     29562] cuts =  0 [   0]
  --> max chng: dpmx=   1.4339E+00 dtmpmx=   4.0106E-02

== TH FLOW =====================================================================
 Step    216 Time=  1.02000E+01 Dt=  5.00000E-02 [y] snes_conv_reason:    3
  newton =   1 [     223] linear =   135 [     29697] cuts =  0 [   0]
  --> max chng: dpmx=   1.4338E+00 dtmpmx=   3.9958E-02

== TH FLOW =====================================================================
 Step    217 Time=  1.02500E+01 Dt=  5.00000E-02 [y] snes_conv_reason:    3
  newton =   1 [     224] linear =   136 [     29833] cuts =  0 [   0]
  --> max chng: dpmx=   1.4338E+00 dtmpmx=   3.9799E-02

== TH FLOW =====================================================================
 Step    218 Time=  1.03000E+01 Dt=  5.00000E-02 [y] snes_conv_reason:    3
  newton =   1 [     225] linear =   135 [     29968] cuts =  0 [   0]
  --> max chng: dpmx=   1.4338E+00 dtmpmx=   3.9639E-02

== TH FLOW =====================================================================
 Step    219 Time=  1.03500E+01 Dt=  5.00000E-02 [y] snes_conv_reason:    3
  newton =   1 [     226] linear =   136 [     30104] cuts =  0 [   0]
  --> max chng: dpmx=   1.4335E+00 dtmpmx=   3.9521E-02

== TH FLOW =====================================================================
 Step    220 Time=  1.04000E+01 Dt=  5.00000E-02 [y] snes_conv_reason:    3
  newton =   1 [     227] linear =   136 [     30240] cuts =  0 [   0]
  --> max chng: dpmx=   1.4333E+00 dtmpmx=   3.9478E-02

== TH FLOW =====================================================================
 Step    221 Time=  1.04500E+01 Dt=  5.00000E-02 [y] snes_conv_reason:    3
  newton =   1 [     228] linear =   135 [     30375] cuts =  0 [   0]
  --> max chng: dpmx=   1.4331E+00 dtmpmx=   3.9419E-02

== TH FLOW =====================================================================
 Step    222 Time=  1.05000E+01 Dt=  5.00000E-02 [y] snes_conv_reason:    3
  newton =   1 [     229] linear =   137 [     30512] cuts =  0 [   0]
  --> max chng: dpmx=   1.4325E+00 dtmpmx=   3.9344E-02

== TH FLOW =====================================================================
 Step    223 Time=  1.05500E+01 Dt=  5.00000E-02 [y] snes_conv_reason:    3
  newton =   1 [     230] linear =   135 [     30647] cuts =  0 [   0]
  --> max chng: dpmx=   1.4320E+00 dtmpmx=   3.9254E-02

== TH FLOW =====================================================================
 Step    224 Time=  1.06000E+01 Dt=  5.00000E-02 [y] snes_conv_reason:    3
  newton =   1 [     231] linear =   135 [     30782] cuts =  0 [   0]
  --> max chng: dpmx=   1.4319E+00 dtmpmx=   3.9149E-02

== TH FLOW =====================================================================
 Step    225 Time=  1.06500E+01 Dt=  5.00000E-02 [y] snes_conv_reason:    3
  newton =   1 [     232] linear =   133 [     30915] cuts =  0 [   0]
  --> max chng: dpmx=   1.4318E+00 dtmpmx=   3.9029E-02

== TH FLOW =====================================================================
 Step    226 Time=  1.07000E+01 Dt=  5.00000E-02 [y] snes_conv_reason:    3
  newton =   1 [     233] linear =   133 [     31048] cuts =  0 [   0]
  --> max chng: dpmx=   1.4315E+00 dtmpmx=   3.8895E-02

== TH FLOW =====================================================================
 Step    227 Time=  1.07500E+01 Dt=  5.00000E-02 [y] snes_conv_reason:    3
  newton =   1 [     234] linear =   129 [     31177] cuts =  0 [   0]
  --> max chng: dpmx=   1.4315E+00 dtmpmx=   3.8746E-02

== TH FLOW =====================================================================
 Step    228 Time=  1.08000E+01 Dt=  5.00000E-02 [y] snes_conv_reason:    3
  newton =   1 [     235] linear =   131 [     31308] cuts =  0 [   0]
  --> max chng: dpmx=   1.4310E+00 dtmpmx=   3.8591E-02

== TH FLOW =====================================================================
 Step    229 Time=  1.08500E+01 Dt=  5.00000E-02 [y] snes_conv_reason:    3
  newton =   1 [     236] linear =   137 [     31445] cuts =  0 [   0]
  --> max chng: dpmx=   1.4310E+00 dtmpmx=   3.8469E-02

== TH FLOW =====================================================================
 Step    230 Time=  1.09000E+01 Dt=  5.00000E-02 [y] snes_conv_reason:    3
  newton =   1 [     237] linear =   134 [     31579] cuts =  0 [   0]
  --> max chng: dpmx=   1.4306E+00 dtmpmx=   3.8432E-02

== TH FLOW =====================================================================
 Step    231 Time=  1.09500E+01 Dt=  5.00000E-02 [y] snes_conv_reason:    3
  newton =   1 [     238] linear =   130 [     31709] cuts =  0 [   0]
  --> max chng: dpmx=   1.4302E+00 dtmpmx=   3.8380E-02

== TH FLOW =====================================================================
 Step    232 Time=  1.10000E+01 Dt=  5.00000E-02 [y] snes_conv_reason:    3
  newton =   1 [     239] linear =   139 [     31848] cuts =  0 [   0]
  --> max chng: dpmx=   1.4296E+00 dtmpmx=   3.8314E-02

== TH FLOW =====================================================================
 Step    233 Time=  1.10500E+01 Dt=  5.00000E-02 [y] snes_conv_reason:    3
  newton =   1 [     240] linear =   128 [     31976] cuts =  0 [   0]
  --> max chng: dpmx=   1.4293E+00 dtmpmx=   3.8234E-02

== TH FLOW =====================================================================
 Step    234 Time=  1.11000E+01 Dt=  5.00000E-02 [y] snes_conv_reason:    3
  newton =   1 [     241] linear =   126 [     32102] cuts =  0 [   0]
  --> max chng: dpmx=   1.4295E+00 dtmpmx=   3.8139E-02

== TH FLOW =====================================================================
 Step    235 Time=  1.11500E+01 Dt=  5.00000E-02 [y] snes_conv_reason:    3
  newton =   1 [     242] linear =   129 [     32231] cuts =  0 [   0]
  --> max chng: dpmx=   1.4292E+00 dtmpmx=   3.8031E-02

== TH FLOW =====================================================================
 Step    236 Time=  1.12000E+01 Dt=  5.00000E-02 [y] snes_conv_reason:    3
  newton =   1 [     243] linear =   132 [     32363] cuts =  0 [   0]
  --> max chng: dpmx=   1.4292E+00 dtmpmx=   3.7909E-02

== TH FLOW =====================================================================
 Step    237 Time=  1.12500E+01 Dt=  5.00000E-02 [y] snes_conv_reason:    3
  newton =   1 [     244] linear =   132 [     32495] cuts =  0 [   0]
  --> max chng: dpmx=   1.4286E+00 dtmpmx=   3.7775E-02

== TH FLOW =====================================================================
 Step    238 Time=  1.13000E+01 Dt=  5.00000E-02 [y] snes_conv_reason:    3
  newton =   1 [     245] linear =   134 [     32629] cuts =  0 [   0]
  --> max chng: dpmx=   1.4282E+00 dtmpmx=   3.7627E-02

== TH FLOW =====================================================================
 Step    239 Time=  1.13500E+01 Dt=  5.00000E-02 [y] snes_conv_reason:    3
  newton =   1 [     246] linear =   135 [     32764] cuts =  0 [   0]
  --> max chng: dpmx=   1.4277E+00 dtmpmx=   3.7493E-02

== TH FLOW =====================================================================
 Step    240 Time=  1.14000E+01 Dt=  5.00000E-02 [y] snes_conv_reason:    3
  newton =   1 [     247] linear =   132 [     32896] cuts =  0 [   0]
  --> max chng: dpmx=   1.4272E+00 dtmpmx=   3.7462E-02

== TH FLOW =====================================================================
 Step    241 Time=  1.14500E+01 Dt=  5.00000E-02 [y] snes_conv_reason:    3
  newton =   1 [     248] linear =   137 [     33033] cuts =  0 [   0]
  --> max chng: dpmx=   1.4270E+00 dtmpmx=   3.7416E-02

== TH FLOW =====================================================================
 Step    242 Time=  1.15000E+01 Dt=  5.00000E-02 [y] snes_conv_reason:    3
  newton =   1 [     249] linear =   137 [     33170] cuts =  0 [   0]
  --> max chng: dpmx=   1.4270E+00 dtmpmx=   3.7358E-02

== TH FLOW =====================================================================
 Step    243 Time=  1.15500E+01 Dt=  5.00000E-02 [y] snes_conv_reason:    3
  newton =   1 [     250] linear =   137 [     33307] cuts =  0 [   0]
  --> max chng: dpmx=   1.4269E+00 dtmpmx=   3.7286E-02

== TH FLOW =====================================================================
 Step    244 Time=  1.16000E+01 Dt=  5.00000E-02 [y] snes_conv_reason:    3
  newton =   1 [     251] linear =   132 [     33439] cuts =  0 [   0]
  --> max chng: dpmx=   1.4261E+00 dtmpmx=   3.7201E-02

== TH FLOW =====================================================================
 Step    245 Time=  1.16500E+01 Dt=  5.00000E-02 [y] snes_conv_reason:    3
  newton =   1 [     252] linear =   137 [     33576] cuts =  0 [   0]
  --> max chng: dpmx=   1.4266E+00 dtmpmx=   3.7103E-02

== TH FLOW =====================================================================
 Step    246 Time=  1.17000E+01 Dt=  5.00000E-02 [y] snes_conv_reason:    3
  newton =   1 [     253] linear =   137 [     33713] cuts =  0 [   0]
  --> max chng: dpmx=   1.4251E+00 dtmpmx=   3.6992E-02

== TH FLOW =====================================================================
 Step    247 Time=  1.17500E+01 Dt=  5.00000E-02 [y] snes_conv_reason:    3
  newton =   1 [     254] linear =   138 [     33851] cuts =  0 [   0]
  --> max chng: dpmx=   1.4254E+00 dtmpmx=   3.6870E-02

== TH FLOW =====================================================================
 Step    248 Time=  1.18000E+01 Dt=  5.00000E-02 [y] snes_conv_reason:    3
  newton =   1 [     255] linear =   134 [     33985] cuts =  0 [   0]
  --> max chng: dpmx=   1.4248E+00 dtmpmx=   3.6735E-02

== TH FLOW =====================================================================
 Step    249 Time=  1.18500E+01 Dt=  5.00000E-02 [y] snes_conv_reason:    3
  newton =   1 [     256] linear =   133 [     34118] cuts =  0 [   0]
  --> max chng: dpmx=   1.4243E+00 dtmpmx=   3.6589E-02

== TH FLOW =====================================================================
 Step    250 Time=  1.19000E+01 Dt=  5.00000E-02 [y] snes_conv_reason:    3
  newton =   1 [     257] linear =   138 [     34256] cuts =  0 [   0]
  --> max chng: dpmx=   1.4245E+00 dtmpmx=   3.6558E-02

== TH FLOW =====================================================================
 Step    251 Time=  1.19500E+01 Dt=  5.00000E-02 [y] snes_conv_reason:    3
  newton =   1 [     258] linear =   138 [     34394] cuts =  0 [   0]
  --> max chng: dpmx=   1.4242E+00 dtmpmx=   3.6519E-02

== TH FLOW =====================================================================
 Step    252 Time=  1.20000E+01 Dt=  5.00000E-02 [y] snes_conv_reason:    3
  newton =   1 [     259] linear =   137 [     34531] cuts =  0 [   0]
  --> max chng: dpmx=   1.4238E+00 dtmpmx=   3.6467E-02

== TH FLOW =====================================================================
 Step    253 Time=  1.20500E+01 Dt=  5.00000E-02 [y] snes_conv_reason:    3
  newton =   1 [     260] linear =   134 [     34665] cuts =  0 [   0]
  --> max chng: dpmx=   1.4233E+00 dtmpmx=   3.6402E-02

== TH FLOW =====================================================================
 Step    254 Time=  1.21000E+01 Dt=  5.00000E-02 [y] snes_conv_reason:    3
  newton =   1 [     261] linear =   135 [     34800] cuts =  0 [   0]
  --> max chng: dpmx=   1.4233E+00 dtmpmx=   3.6325E-02

== TH FLOW =====================================================================
 Step    255 Time=  1.21500E+01 Dt=  5.00000E-02 [y] snes_conv_reason:    3
  newton =   1 [     262] linear =   135 [     34935] cuts =  0 [   0]
  --> max chng: dpmx=   1.4222E+00 dtmpmx=   3.6236E-02

== TH FLOW =====================================================================
 Step    256 Time=  1.22000E+01 Dt=  5.00000E-02 [y] snes_conv_reason:    3
  newton =   1 [     263] linear =   132 [     35067] cuts =  0 [   0]
  --> max chng: dpmx=   1.4220E+00 dtmpmx=   3.6136E-02

== TH FLOW =====================================================================
 Step    257 Time=  1.22500E+01 Dt=  5.00000E-02 [y] snes_conv_reason:    3
  newton =   1 [     264] linear =   140 [     35207] cuts =  0 [   0]
  --> max chng: dpmx=   1.4219E+00 dtmpmx=   3.6024E-02

[...]
 Step    493 Time=  2.40500E+01 Dt=  5.00000E-02 [y] snes_conv_reason:    3
  newton =   1 [     500] linear =   130 [     66401] cuts =  0 [   0]
  --> max chng: dpmx=   1.2987E+00 dtmpmx=   2.4680E-02

== TH FLOW =====================================================================
 Step    494 Time=  2.41000E+01 Dt=  5.00000E-02 [y] snes_conv_reason:    3
  newton =   1 [     501] linear =   131 [     66532] cuts =  0 [   0]
  --> max chng: dpmx=   1.2979E+00 dtmpmx=   2.4640E-02

== TH FLOW =====================================================================
 Step    495 Time=  2.41500E+01 Dt=  5.00000E-02 [y] snes_conv_reason:    3
  newton =   1 [     502] linear =   132 [     66664] cuts =  0 [   0]
  --> max chng: dpmx=   1.2975E+00 dtmpmx=   2.4629E-02

== TH FLOW =====================================================================
 Step    496 Time=  2.42000E+01 Dt=  5.00000E-02 [y] snes_conv_reason:    3
  newton =   1 [     503] linear =   125 [     66789] cuts =  0 [   0]
  --> max chng: dpmx=   1.2971E+00 dtmpmx=   2.4614E-02

== TH FLOW =====================================================================
 Step    497 Time=  2.42500E+01 Dt=  5.00000E-02 [y] snes_conv_reason:    3
  newton =   1 [     504] linear =   135 [     66924] cuts =  0 [   0]
  --> max chng: dpmx=   1.2962E+00 dtmpmx=   2.4595E-02

== TH FLOW =====================================================================
 Step    498 Time=  2.43000E+01 Dt=  5.00000E-02 [y] snes_conv_reason:    3
  newton =   1 [     505] linear =   132 [     67056] cuts =  0 [   0]
  --> max chng: dpmx=   1.2961E+00 dtmpmx=   2.4572E-02

== TH FLOW =====================================================================
 Step    499 Time=  2.43500E+01 Dt=  5.00000E-02 [y] snes_conv_reason:    3
  newton =   1 [     506] linear =   133 [     67189] cuts =  0 [   0]
  --> max chng: dpmx=   1.2952E+00 dtmpmx=   2.4545E-02

== TH FLOW =====================================================================
 Step    500 Time=  2.44000E+01 Dt=  5.00000E-02 [y] snes_conv_reason:    3
  newton =   1 [     507] linear =   133 [     67322] cuts =  0 [   0]
  --> max chng: dpmx=   1.2944E+00 dtmpmx=   2.4514E-02

== TH FLOW =====================================================================
 Step    501 Time=  2.44500E+01 Dt=  5.00000E-02 [y] snes_conv_reason:    3
  newton =   1 [     508] linear =   138 [     67460] cuts =  0 [   0]
  --> max chng: dpmx=   1.2939E+00 dtmpmx=   2.4479E-02

== TH FLOW =====================================================================
 Step    502 Time=  2.45000E+01 Dt=  5.00000E-02 [y] snes_conv_reason:    3
  newton =   1 [     509] linear =   127 [     67587] cuts =  0 [   0]
  --> max chng: dpmx=   1.2936E+00 dtmpmx=   2.4441E-02

== TH FLOW =====================================================================
 Step    503 Time=  2.45500E+01 Dt=  5.00000E-02 [y] snes_conv_reason:    3
  newton =   1 [     510] linear =   134 [     67721] cuts =  0 [   0]
  --> max chng: dpmx=   1.2925E+00 dtmpmx=   2.4398E-02

== TH FLOW =====================================================================
 Step    504 Time=  2.46000E+01 Dt=  5.00000E-02 [y] snes_conv_reason:    3
  newton =   1 [     511] linear =   135 [     67856] cuts =  0 [   0]
  --> max chng: dpmx=   1.2920E+00 dtmpmx=   2.4353E-02

== TH FLOW =====================================================================
 Step    505 Time=  2.46500E+01 Dt=  5.00000E-02 [y] snes_conv_reason:    3
  newton =   1 [     512] linear =   129 [     67985] cuts =  0 [   0]
  --> max chng: dpmx=   1.2916E+00 dtmpmx=   2.4343E-02

== TH FLOW =====================================================================
 Step    506 Time=  2.47000E+01 Dt=  5.00000E-02 [y] snes_conv_reason:    3
  newton =   1 [     513] linear =   135 [     68120] cuts =  0 [   0]
  --> max chng: dpmx=   1.2908E+00 dtmpmx=   2.4329E-02

== TH FLOW =====================================================================
 Step    507 Time=  2.47500E+01 Dt=  5.00000E-02 [y] snes_conv_reason:    3
  newton =   1 [     514] linear =   133 [     68253] cuts =  0 [   0]
  --> max chng: dpmx=   1.2908E+00 dtmpmx=   2.4311E-02

== TH FLOW =====================================================================
 Step    508 Time=  2.48000E+01 Dt=  5.00000E-02 [y] snes_conv_reason:    3
  newton =   1 [     515] linear =   135 [     68388] cuts =  0 [   0]
  --> max chng: dpmx=   1.2897E+00 dtmpmx=   2.4290E-02

== TH FLOW =====================================================================
 Step    509 Time=  2.48500E+01 Dt=  5.00000E-02 [y] snes_conv_reason:    3
  newton =   1 [     516] linear =   137 [     68525] cuts =  0 [   0]
  --> max chng: dpmx=   1.2891E+00 dtmpmx=   2.4264E-02

== TH FLOW =====================================================================
 Step    510 Time=  2.49000E+01 Dt=  5.00000E-02 [y] snes_conv_reason:    3
  newton =   1 [     517] linear =   126 [     68651] cuts =  0 [   0]
  --> max chng: dpmx=   1.2887E+00 dtmpmx=   2.4235E-02

== TH FLOW =====================================================================
 Step    511 Time=  2.49500E+01 Dt=  5.00000E-02 [y] snes_conv_reason:    3
  newton =   1 [     518] linear =   129 [     68780] cuts =  0 [   0]
  --> max chng: dpmx=   1.2877E+00 dtmpmx=   2.4202E-02

== TH FLOW =====================================================================
 Step    512 Time=  2.50000E+01 Dt=  5.00000E-02 [y] snes_conv_reason:    3
  newton =   1 [     519] linear =   131 [     68911] cuts =  0 [   0]
  --> max chng: dpmx=   1.2872E+00 dtmpmx=   2.4165E-02

== TH FLOW =====================================================================
 Step    513 Time=  2.50500E+01 Dt=  5.00000E-02 [y] snes_conv_reason:    3
  newton =   1 [     520] linear =   130 [     69041] cuts =  0 [   0]
  --> max chng: dpmx=   1.2867E+00 dtmpmx=   2.4125E-02

== TH FLOW =====================================================================
 Step    514 Time=  2.51000E+01 Dt=  5.00000E-02 [y] snes_conv_reason:    3
  newton =   1 [     521] linear =   129 [     69170] cuts =  0 [   0]
  --> max chng: dpmx=   1.2859E+00 dtmpmx=   2.4081E-02

== TH FLOW =====================================================================
 Step    515 Time=  2.51500E+01 Dt=  5.00000E-02 [y] snes_conv_reason:    3
  newton =   1 [     522] linear =   132 [     69302] cuts =  0 [   0]
  --> max chng: dpmx=   1.2855E+00 dtmpmx=   2.4066E-02

== TH FLOW =====================================================================
 Step    516 Time=  2.52000E+01 Dt=  5.00000E-02 [y] snes_conv_reason:    3
  newton =   1 [     523] linear =   132 [     69434] cuts =  0 [   0]
  --> max chng: dpmx=   1.2851E+00 dtmpmx=   2.4053E-02

== TH FLOW =====================================================================
 Step    517 Time=  2.52500E+01 Dt=  5.00000E-02 [y] snes_conv_reason:    3
  newton =   1 [     524] linear =   134 [     69568] cuts =  0 [   0]
  --> max chng: dpmx=   1.2844E+00 dtmpmx=   2.4036E-02

== TH FLOW =====================================================================
 Step    518 Time=  2.53000E+01 Dt=  5.00000E-02 [y] snes_conv_reason:    3
  newton =   1 [     525] linear =   128 [     69696] cuts =  0 [   0]
  --> max chng: dpmx=   1.2837E+00 dtmpmx=   2.4016E-02

== TH FLOW =====================================================================
 Step    519 Time=  2.53500E+01 Dt=  5.00000E-02 [y] snes_conv_reason:    3
  newton =   1 [     526] linear =   128 [     69824] cuts =  0 [   0]
  --> max chng: dpmx=   1.2828E+00 dtmpmx=   2.3992E-02

== TH FLOW =====================================================================
 Step    520 Time=  2.54000E+01 Dt=  5.00000E-02 [y] snes_conv_reason:    3
  newton =   1 [     527] linear =   136 [     69960] cuts =  0 [   0]
  --> max chng: dpmx=   1.2823E+00 dtmpmx=   2.3964E-02

== TH FLOW =====================================================================
 Step    521 Time=  2.54500E+01 Dt=  5.00000E-02 [y] snes_conv_reason:    3
  newton =   1 [     528] linear =   129 [     70089] cuts =  0 [   0]
  --> max chng: dpmx=   1.2818E+00 dtmpmx=   2.3932E-02

== TH FLOW =====================================================================
 Step    522 Time=  2.55000E+01 Dt=  5.00000E-02 [y] snes_conv_reason:    3
  newton =   1 [     529] linear =   134 [     70223] cuts =  0 [   0]
  --> max chng: dpmx=   1.2811E+00 dtmpmx=   2.3897E-02

== TH FLOW =====================================================================
 Step    523 Time=  2.55500E+01 Dt=  5.00000E-02 [y] snes_conv_reason:    3
  newton =   1 [     530] linear =   128 [     70351] cuts =  0 [   0]
  --> max chng: dpmx=   1.2807E+00 dtmpmx=   2.3859E-02

== TH FLOW =====================================================================
 Step    524 Time=  2.56000E+01 Dt=  5.00000E-02 [y] snes_conv_reason:    3
  newton =   1 [     531] linear =   127 [     70478] cuts =  0 [   0]
  --> max chng: dpmx=   1.2802E+00 dtmpmx=   2.3817E-02

== TH FLOW =====================================================================
 Step    525 Time=  2.56500E+01 Dt=  5.00000E-02 [y] snes_conv_reason:    3
  newton =   1 [     532] linear =   127 [     70605] cuts =  0 [   0]
  --> max chng: dpmx=   1.2796E+00 dtmpmx=   2.3797E-02

== TH FLOW =====================================================================
 Step    526 Time=  2.57000E+01 Dt=  5.00000E-02 [y] snes_conv_reason:    3
  newton =   1 [     533] linear =   128 [     70733] cuts =  0 [   0]
  --> max chng: dpmx=   1.2790E+00 dtmpmx=   2.3785E-02

== TH FLOW =====================================================================
 Step    527 Time=  2.57500E+01 Dt=  5.00000E-02 [y] snes_conv_reason:    3
  newton =   1 [     534] linear =   133 [     70866] cuts =  0 [   0]
  --> max chng: dpmx=   1.2781E+00 dtmpmx=   2.3769E-02

== TH FLOW =====================================================================
 Step    528 Time=  2.58000E+01 Dt=  5.00000E-02 [y] snes_conv_reason:    3
  newton =   1 [     535] linear =   132 [     70998] cuts =  0 [   0]
  --> max chng: dpmx=   1.2775E+00 dtmpmx=   2.3750E-02

== TH FLOW =====================================================================
 Step    529 Time=  2.58500E+01 Dt=  5.00000E-02 [y] snes_conv_reason:    3
  newton =   1 [     536] linear =   132 [     71130] cuts =  0 [   0]
  --> max chng: dpmx=   1.2769E+00 dtmpmx=   2.3727E-02

== TH FLOW =====================================================================
 Step    530 Time=  2.59000E+01 Dt=  5.00000E-02 [y] snes_conv_reason:    3
  newton =   1 [     537] linear =   134 [     71264] cuts =  0 [   0]
  --> max chng: dpmx=   1.2764E+00 dtmpmx=   2.3701E-02

== TH FLOW =====================================================================
 Step    531 Time=  2.59500E+01 Dt=  5.00000E-02 [y] snes_conv_reason:    3
  newton =   1 [     538] linear =   134 [     71398] cuts =  0 [   0]
  --> max chng: dpmx=   1.2758E+00 dtmpmx=   2.3671E-02

== TH FLOW =====================================================================
 Step    532 Time=  2.60000E+01 Dt=  5.00000E-02 [y] snes_conv_reason:    3
  newton =   1 [     539] linear =   128 [     71526] cuts =  0 [   0]
  --> max chng: dpmx=   1.2749E+00 dtmpmx=   2.3637E-02

== TH FLOW =====================================================================
 Step    533 Time=  2.60500E+01 Dt=  5.00000E-02 [y] snes_conv_reason:    3
  newton =   1 [     540] linear =   129 [     71655] cuts =  0 [   0]
  --> max chng: dpmx=   1.2747E+00 dtmpmx=   2.3600E-02

== TH FLOW =====================================================================
 Step    534 Time=  2.61000E+01 Dt=  5.00000E-02 [y] snes_conv_reason:    3
  newton =   1 [     541] linear =   133 [     71788] cuts =  0 [   0]
  --> max chng: dpmx=   1.2740E+00 dtmpmx=   2.3560E-02

== TH FLOW =====================================================================
 Step    535 Time=  2.61500E+01 Dt=  5.00000E-02 [y] snes_conv_reason:    3
  newton =   1 [     542] linear =   134 [     71922] cuts =  0 [   0]
  --> max chng: dpmx=   1.2733E+00 dtmpmx=   2.3535E-02

== TH FLOW =====================================================================
 Step    536 Time=  2.62000E+01 Dt=  5.00000E-02 [y] snes_conv_reason:    3
  newton =   1 [     543] linear =   135 [     72057] cuts =  0 [   0]
  --> max chng: dpmx=   1.2727E+00 dtmpmx=   2.3524E-02

== TH FLOW =====================================================================
 Step    537 Time=  2.62500E+01 Dt=  5.00000E-02 [y] snes_conv_reason:    3
  newton =   1 [     544] linear =   135 [     72192] cuts =  0 [   0]
  --> max chng: dpmx=   1.2720E+00 dtmpmx=   2.3510E-02

== TH FLOW =====================================================================
 Step    538 Time=  2.63000E+01 Dt=  5.00000E-02 [y] snes_conv_reason:    3
  newton =   1 [     545] linear =   134 [     72326] cuts =  0 [   0]
  --> max chng: dpmx=   1.2714E+00 dtmpmx=   2.3492E-02

== TH FLOW =====================================================================
 Step    539 Time=  2.63500E+01 Dt=  5.00000E-02 [y] snes_conv_reason:    3
  newton =   1 [     546] linear =   133 [     72459] cuts =  0 [   0]
  --> max chng: dpmx=   1.2708E+00 dtmpmx=   2.3470E-02

== TH FLOW =====================================================================
 Step    540 Time=  2.64000E+01 Dt=  5.00000E-02 [y] snes_conv_reason:    3
  newton =   1 [     547] linear =   137 [     72596] cuts =  0 [   0]
  --> max chng: dpmx=   1.2700E+00 dtmpmx=   2.3445E-02

== TH FLOW =====================================================================
 Step    541 Time=  2.64500E+01 Dt=  5.00000E-02 [y] snes_conv_reason:    3
  newton =   1 [     548] linear =   137 [     72733] cuts =  0 [   0]
  --> max chng: dpmx=   1.2696E+00 dtmpmx=   2.3416E-02

== TH FLOW =====================================================================
 Step    542 Time=  2.65000E+01 Dt=  5.00000E-02 [y] snes_conv_reason:    3
  newton =   1 [     549] linear =   135 [     72868] cuts =  0 [   0]
  --> max chng: dpmx=   1.2692E+00 dtmpmx=   2.3384E-02

== TH FLOW =====================================================================
 Step    543 Time=  2.65500E+01 Dt=  5.00000E-02 [y] snes_conv_reason:    3
  newton =   1 [     550] linear =   136 [     73004] cuts =  0 [   0]
  --> max chng: dpmx=   1.2683E+00 dtmpmx=   2.3349E-02

== TH FLOW =====================================================================
 Step    544 Time=  2.66000E+01 Dt=  5.00000E-02 [y] snes_conv_reason:    3
  newton =   1 [     551] linear =   134 [     73138] cuts =  0 [   0]
  --> max chng: dpmx=   1.2681E+00 dtmpmx=   2.3310E-02

== TH FLOW =====================================================================
 Step    545 Time=  2.66500E+01 Dt=  5.00000E-02 [y] snes_conv_reason:    3
  newton =   1 [     552] linear =   133 [     73271] cuts =  0 [   0]
  --> max chng: dpmx=   1.2669E+00 dtmpmx=   2.3281E-02

== TH FLOW =====================================================================
 Step    546 Time=  2.67000E+01 Dt=  5.00000E-02 [y] snes_conv_reason:    3
  newton =   1 [     553] linear =   134 [     73405] cuts =  0 [   0]
  --> max chng: dpmx=   1.2665E+00 dtmpmx=   2.3271E-02

== TH FLOW =====================================================================
 Step    547 Time=  2.67500E+01 Dt=  5.00000E-02 [y] snes_conv_reason:    3
  newton =   1 [     554] linear =   134 [     73539] cuts =  0 [   0]
  --> max chng: dpmx=   1.2659E+00 dtmpmx=   2.3258E-02

== TH FLOW =====================================================================
 Step    548 Time=  2.68000E+01 Dt=  5.00000E-02 [y] snes_conv_reason:    3
  newton =   1 [     555] linear =   135 [     73674] cuts =  0 [   0]
  --> max chng: dpmx=   1.2655E+00 dtmpmx=   2.3240E-02

== TH FLOW =====================================================================
 Step    549 Time=  2.68500E+01 Dt=  5.00000E-02 [y] snes_conv_reason:    3
  newton =   1 [     556] linear =   135 [     73809] cuts =  0 [   0]
  --> max chng: dpmx=   1.2643E+00 dtmpmx=   2.3220E-02

== TH FLOW =====================================================================
 Step    550 Time=  2.69000E+01 Dt=  5.00000E-02 [y] snes_conv_reason:    3
  newton =   1 [     557] linear =   132 [     73941] cuts =  0 [   0]
  --> max chng: dpmx=   1.2642E+00 dtmpmx=   2.3196E-02

== TH FLOW =====================================================================
 Step    551 Time=  2.69500E+01 Dt=  5.00000E-02 [y] snes_conv_reason:    3
  newton =   1 [     558] linear =   135 [     74076] cuts =  0 [   0]
  --> max chng: dpmx=   1.2639E+00 dtmpmx=   2.3169E-02

== TH FLOW =====================================================================
 Step    552 Time=  2.70000E+01 Dt=  5.00000E-02 [y] snes_conv_reason:    3
  newton =   1 [     559] linear =   134 [     74210] cuts =  0 [   0]
  --> max chng: dpmx=   1.2626E+00 dtmpmx=   2.3138E-02

== TH FLOW =====================================================================
 Step    553 Time=  2.70500E+01 Dt=  5.00000E-02 [y] snes_conv_reason:    3
  newton =   1 [     560] linear =   129 [     74339] cuts =  0 [   0]
  --> max chng: dpmx=   1.2625E+00 dtmpmx=   2.3105E-02

== TH FLOW =====================================================================
 Step    554 Time=  2.71000E+01 Dt=  5.00000E-02 [y] snes_conv_reason:    3
  newton =   1 [     561] linear =   130 [     74469] cuts =  0 [   0]
  --> max chng: dpmx=   1.2613E+00 dtmpmx=   2.3068E-02

== TH FLOW =====================================================================
 Step    555 Time=  2.71500E+01 Dt=  5.00000E-02 [y] snes_conv_reason:    3
  newton =   1 [     562] linear =   132 [     74601] cuts =  0 [   0]
  --> max chng: dpmx=   1.2612E+00 dtmpmx=   2.3035E-02

== TH FLOW =====================================================================
 Step    556 Time=  2.72000E+01 Dt=  5.00000E-02 [y] snes_conv_reason:    3
  newton =   1 [     563] linear =   134 [     74735] cuts =  0 [   0]
  --> max chng: dpmx=   1.2601E+00 dtmpmx=   2.3025E-02

== TH FLOW =====================================================================
 Step    557 Time=  2.72500E+01 Dt=  5.00000E-02 [y] snes_conv_reason:    3
  newton =   1 [     564] linear =   134 [     74869] cuts =  0 [   0]
  --> max chng: dpmx=   1.2598E+00 dtmpmx=   2.3012E-02

== TH FLOW =====================================================================
 Step    558 Time=  2.73000E+01 Dt=  5.00000E-02 [y] snes_conv_reason:    3
  newton =   1 [     565] linear =   134 [     75003] cuts =  0 [   0]
  --> max chng: dpmx=   1.2590E+00 dtmpmx=   2.2996E-02

== TH FLOW =====================================================================
 Step    559 Time=  2.73500E+01 Dt=  5.00000E-02 [y] snes_conv_reason:    3
  newton =   1 [     566] linear =   132 [     75135] cuts =  0 [   0]
  --> max chng: dpmx=   1.2585E+00 dtmpmx=   2.2977E-02

== TH FLOW =====================================================================
 Step    560 Time=  2.74000E+01 Dt=  5.00000E-02 [y] snes_conv_reason:    3
  newton =   1 [     567] linear =   134 [     75269] cuts =  0 [   0]
  --> max chng: dpmx=   1.2582E+00 dtmpmx=   2.2954E-02

== TH FLOW =====================================================================
 Step    561 Time=  2.74500E+01 Dt=  5.00000E-02 [y] snes_conv_reason:    3
  newton =   1 [     568] linear =   131 [     75400] cuts =  0 [   0]
  --> max chng: dpmx=   1.2571E+00 dtmpmx=   2.2928E-02

== TH FLOW =====================================================================
 Step    562 Time=  2.75000E+01 Dt=  5.00000E-02 [y] snes_conv_reason:    3
  newton =   1 [     569] linear =   131 [     75531] cuts =  0 [   0]
  --> max chng: dpmx=   1.2570E+00 dtmpmx=   2.2899E-02

 Wall Clock Time:  1.9272E+02 [sec]   3.2120E+00 [min]   5.3533E-02 [hr]
