
===================
  PFLOTRAN v3.0.1
===================

 Extent of Gridded Domain
  X: 2.5000000000000000 - 97.500000000000000
  Y: 2.5000000000000000 - 1277.5000000000000
  Z: 2.5000000000000000 - 2.5000000000000000


=+=+=+=+=+=+=+=+=+=+=+=+=+=+=+=+=+=+=+=+=+=+=+=+=+=+=+=+=+=+=+=+=+=+=+=+=+=+=+=+

  Initial Condition

--------------------------------------------------------------------------------
          Flow Condition:   initial
                  Region:   all
--------------------------------------------------------------------------------

  Flow Condition: initial
    Synchronize time with update: no
    Time units: yr
    Length units: m
      Datum:
        Dataset: Unnamed Ascii Dataset
          Type: dataset_ascii_type
          Transient: no
          Array Rank:  3

    Sub Condition: pressure
      Type: hydrostatic
      Gradient:
        Dataset: Unnamed Ascii Dataset
          Type: dataset_ascii_type
          Transient: no
          Array Rank:  3
      Data:
        Dataset: Unnamed Ascii Dataset
          Type: dataset_ascii_type
          Transient: no
          Array Rank:  1

    Sub Condition: temperature
      Type: dirichlet
      Gradient:
      Data:
        Dataset: Unnamed Ascii Dataset
          Type: dataset_ascii_type
          Transient: no
          Array Rank:  1

--------------------------------------------------------------------------------

=+=+=+=+=+=+=+=+=+=+=+=+=+=+=+=+=+=+=+=+=+=+=+=+=+=+=+=+=+=+=+=+=+=+=+=+=+=+=+=+

  Boundary Condition

--------------------------------------------------------------------------------
          Flow Condition:   initial
                  Region:   north
--------------------------------------------------------------------------------

  Flow Condition: initial
    Synchronize time with update: no
    Time units: yr
    Length units: m
      Datum:
        Dataset: Unnamed Ascii Dataset
          Type: dataset_ascii_type
          Transient: no
          Array Rank:  3

    Sub Condition: pressure
      Type: hydrostatic
      Gradient:
        Dataset: Unnamed Ascii Dataset
          Type: dataset_ascii_type
          Transient: no
          Array Rank:  3
      Data:
        Dataset: Unnamed Ascii Dataset
          Type: dataset_ascii_type
          Transient: no
          Array Rank:  1

    Sub Condition: temperature
      Type: dirichlet
      Gradient:
      Data:
        Dataset: Unnamed Ascii Dataset
          Type: dataset_ascii_type
          Transient: no
          Array Rank:  1

--------------------------------------------------------------------------------

=+=+=+=+=+=+=+=+=+=+=+=+=+=+=+=+=+=+=+=+=+=+=+=+=+=+=+=+=+=+=+=+=+=+=+=+=+=+=+=+

  Boundary Condition

--------------------------------------------------------------------------------
          Flow Condition:   initial
                  Region:   south
--------------------------------------------------------------------------------

  Flow Condition: initial
    Synchronize time with update: no
    Time units: yr
    Length units: m
      Datum:
        Dataset: Unnamed Ascii Dataset
          Type: dataset_ascii_type
          Transient: no
          Array Rank:  3

    Sub Condition: pressure
      Type: hydrostatic
      Gradient:
        Dataset: Unnamed Ascii Dataset
          Type: dataset_ascii_type
          Transient: no
          Array Rank:  3
      Data:
        Dataset: Unnamed Ascii Dataset
          Type: dataset_ascii_type
          Transient: no
          Array Rank:  1

    Sub Condition: temperature
      Type: dirichlet
      Gradient:
      Data:
        Dataset: Unnamed Ascii Dataset
          Type: dataset_ascii_type
          Transient: no
          Array Rank:  1

--------------------------------------------------------------------------------

=+=+=+=+=+=+=+=+=+=+=+=+=+=+=+=+=+=+=+=+=+=+=+=+=+=+=+=+=+=+=+=+=+=+=+=+=+=+=+=+

  Source Sink

--------------------------------------------------------------------------------
          Flow Condition:   injection
                  Region:   heatpump_inject0
--------------------------------------------------------------------------------

  Flow Condition: injection
    Synchronize time with update: no
    Time units: yr
    Length units: m
      Datum:

    Sub Condition: rate
      Type: scaled volumetric rate
      Gradient:
      Data:
        Dataset: Unnamed Ascii Dataset
          Type: dataset_ascii_type
          Is transient?: yes
          Number of times:      3
          Is cyclic?: no
          Buffer:
            Rank:  2
            Dims:    1   3
            Buffer Slice Size:   0
          Array Rank:  1

    Sub Condition: temperature
      Type: dirichlet
      Gradient:
      Data:
        Dataset: Unnamed Ascii Dataset
          Type: dataset_ascii_type
          Transient: no
          Array Rank:  1

--------------------------------------------------------------------------------

 Requested processors =    16

FLOW Time Stepper
                 acceleration: on
       acceleration threshold: 5
       number of ramp entries: 5
                ramp entry #1: 2.0000
                ramp entry #2: 2.0000
                ramp entry #3: 2.0000
                ramp entry #4: 2.0000
                ramp entry #5: 2.0000
                ramp entry #6: 1.8000
                ramp entry #7: 1.6000
                ramp entry #8: 1.4000
                ramp entry #9: 1.2000
               ramp entry #10: 1.0000
               ramp entry #11: 1.0000
               ramp entry #12: 1.0000
               ramp entry #13: 1.0000
      maximum number of steps: 999999
constant time steps threshold: 5
       maximum number of cuts: 16
             reduction factor: 5.000000E-01
        maximum growth factor: 2.000000E+00

FLOW Newton Solver
                         atol: 1.000000E-50
                         rtol: 1.000000E-03
                         stol: 1.000000E-08
                         dtol: 1.000000E+04
                      maxnorm: 1.000000E+20
                    inftolres: -9.990000E+02
                    inftolupd: 1.000000E+00
                 inftolrelupd: -9.990000E+02
                 inftolsclres: -9.990000E+02
                     max iter: 50
                     min iter: 1
                         maxf: 10000
                  matrix type: baij
         precond. matrix type: baij
               inexact newton: off
            print convergence: on
   print detailed convergence: off
          check infinity norm: on

FLOW Linear Solver
                       solver: bcgs
               preconditioner: bjacobi
                         atol: 1.000000E-50
                         rtol: 1.000000E-05
                         dtol: 1.000000E+04
            maximum iteration: 10000

== TH FLOW =====================================================================
 Step      1 Time=  1.00000E-05 Dt=  1.00000E-05 [y] snes_conv_reason:   11
  newton =   1 [       1] linear =    65 [        65] cuts =  0 [   0]
  --> max chng: dpmx=   8.9160E-02 dtmpmx=   9.0166E-09

== TH FLOW =====================================================================
 Step      2 Time=  3.00000E-05 Dt=  2.00000E-05 [y] snes_conv_reason:   11
  newton =   1 [       2] linear =    62 [       127] cuts =  0 [   0]
  --> max chng: dpmx=   2.7210E-02 dtmpmx=   1.7844E-08

== TH FLOW =====================================================================
 Step      3 Time=  7.00000E-05 Dt=  4.00000E-05 [y] snes_conv_reason:   11
  newton =   1 [       3] linear =    94 [       221] cuts =  0 [   0]
  --> max chng: dpmx=   4.3491E-03 dtmpmx=   3.5626E-08

== TH FLOW =====================================================================
 Step      4 Time=  1.50000E-04 Dt=  8.00000E-05 [y] snes_conv_reason:   11
  newton =   1 [       4] linear =   119 [       340] cuts =  0 [   0]
  --> max chng: dpmx=   3.6024E-04 dtmpmx=   7.1242E-08

== TH FLOW =====================================================================
 Step      5 Time=  3.10000E-04 Dt=  1.60000E-04 [y] snes_conv_reason:   11
  newton =   1 [       5] linear =   119 [       459] cuts =  0 [   0]
  --> max chng: dpmx=   1.4950E-05 dtmpmx=   1.4249E-07

== TH FLOW =====================================================================
 Step      6 Time=  6.30000E-04 Dt=  3.20000E-04 [y] snes_conv_reason:   11
  newton =   1 [       6] linear =   122 [       581] cuts =  0 [   0]
  --> max chng: dpmx=   1.1397E-06 dtmpmx=   2.8497E-07

== TH FLOW =====================================================================
 Step      7 Time=  1.27000E-03 Dt=  6.40000E-04 [y] snes_conv_reason:   11
  newton =   1 [       7] linear =   122 [       703] cuts =  0 [   0]
  --> max chng: dpmx=   2.3368E-06 dtmpmx=   5.6994E-07

== TH FLOW =====================================================================
 Step      8 Time=  2.55000E-03 Dt=  1.28000E-03 [y] snes_conv_reason:   11
  newton =   1 [       8] linear =   123 [       826] cuts =  0 [   0]
  --> max chng: dpmx=   4.8222E-06 dtmpmx=   1.1399E-06

== TH FLOW =====================================================================
 Step      9 Time=  5.11000E-03 Dt=  2.56000E-03 [y] snes_conv_reason:   11
  newton =   1 [       9] linear =   117 [       943] cuts =  0 [   0]
  --> max chng: dpmx=   1.0226E-05 dtmpmx=   2.2798E-06

== TH FLOW =====================================================================
 Step     10 Time=  1.02300E-02 Dt=  5.12000E-03 [y] snes_conv_reason:   11
  newton =   1 [      10] linear =   117 [      1060] cuts =  0 [   0]
  --> max chng: dpmx=   2.2840E-05 dtmpmx=   4.5595E-06

== TH FLOW =====================================================================
 Step     11 Time=  2.04700E-02 Dt=  1.02400E-02 [y] snes_conv_reason:   11
  newton =   1 [      11] linear =   117 [      1177] cuts =  0 [   0]
  --> max chng: dpmx=   5.5151E-05 dtmpmx=   9.1190E-06

== TH FLOW =====================================================================
 Step     12 Time=  4.09500E-02 Dt=  2.04800E-02 [y] snes_conv_reason:   11
  newton =   1 [      12] linear =   123 [      1300] cuts =  0 [   0]
  --> max chng: dpmx=   1.4776E-04 dtmpmx=   1.8238E-05

== TH FLOW =====================================================================
 Step     13 Time=  8.19100E-02 Dt=  4.09600E-02 [y] snes_conv_reason:   11
  newton =   1 [      13] linear =   119 [      1419] cuts =  0 [   0]
  --> max chng: dpmx=   4.4233E-04 dtmpmx=   3.6476E-05

== TH FLOW =====================================================================
 Step     14 Time=  1.00000E-01 Dt=  1.80900E-02 [y] snes_conv_reason:   11
  newton =   1 [      14] linear =   122 [      1541] cuts =  0 [   0]
  --> max chng: dpmx=   2.2417E-04 dtmpmx=   1.6110E-05

== TH FLOW =====================================================================
 Step     15 Time=  1.50000E-01 Dt=  5.00000E-02 [y] snes_conv_reason:   11
  newton =   1 [      15] linear =   117 [      1658] cuts =  0 [   0]
  --> max chng: dpmx=   8.3410E-04 dtmpmx=   4.4527E-05

== TH FLOW =====================================================================
 Step     16 Time=  2.00000E-01 Dt=  5.00000E-02 [y] snes_conv_reason:   11
  newton =   1 [      16] linear =   121 [      1779] cuts =  0 [   0]
  --> max chng: dpmx=   1.0457E-03 dtmpmx=   4.4527E-05

== TH FLOW =====================================================================
 Step     17 Time=  2.50000E-01 Dt=  5.00000E-02 [y] snes_conv_reason:   11
  newton =   3 [      19] linear =   356 [      2135] cuts =  0 [   0]
  --> max chng: dpmx=   3.9453E+02 dtmpmx=   2.9074E+00

== TH FLOW =====================================================================
 Step     18 Time=  3.00000E-01 Dt=  5.00000E-02 [y] snes_conv_reason:   11
  newton =   2 [      21] linear =   244 [      2379] cuts =  0 [   0]
  --> max chng: dpmx=   3.3131E+00 dtmpmx=   1.1288E+00

== TH FLOW =====================================================================
 Step     19 Time=  3.50000E-01 Dt=  5.00000E-02 [y] snes_conv_reason:   11
  newton =   2 [      23] linear =   239 [      2618] cuts =  0 [   0]
  --> max chng: dpmx=   2.6522E+00 dtmpmx=   8.1665E-01

== TH FLOW =====================================================================
 Step     20 Time=  4.00000E-01 Dt=  5.00000E-02 [y] snes_conv_reason:   11
  newton =   2 [      25] linear =   236 [      2854] cuts =  0 [   0]
  --> max chng: dpmx=   2.4783E+00 dtmpmx=   6.5721E-01

== TH FLOW =====================================================================
 Step     21 Time=  4.50000E-01 Dt=  5.00000E-02 [y] snes_conv_reason:   11
  newton =   2 [      27] linear =   238 [      3092] cuts =  0 [   0]
  --> max chng: dpmx=   2.3658E+00 dtmpmx=   5.6746E-01

== TH FLOW =====================================================================
 Step     22 Time=  5.00000E-01 Dt=  5.00000E-02 [y] snes_conv_reason:   11
  newton =   2 [      29] linear =   236 [      3328] cuts =  0 [   0]
  --> max chng: dpmx=   2.2832E+00 dtmpmx=   4.9884E-01

== TH FLOW =====================================================================
 Step     23 Time=  5.50000E-01 Dt=  5.00000E-02 [y] snes_conv_reason:   11
  newton =   2 [      31] linear =   241 [      3569] cuts =  0 [   0]
  --> max chng: dpmx=   2.2179E+00 dtmpmx=   4.5401E-01

== TH FLOW =====================================================================
 Step     24 Time=  6.00000E-01 Dt=  5.00000E-02 [y] snes_conv_reason:    3
  newton =   1 [      32] linear =   123 [      3692] cuts =  0 [   0]
  --> max chng: dpmx=   2.1642E+00 dtmpmx=   4.1610E-01

== TH FLOW =====================================================================
 Step     25 Time=  6.50000E-01 Dt=  5.00000E-02 [y] snes_conv_reason:    3
  newton =   1 [      33] linear =   124 [      3816] cuts =  0 [   0]
  --> max chng: dpmx=   2.1183E+00 dtmpmx=   3.8510E-01

== TH FLOW =====================================================================
 Step     26 Time=  7.00000E-01 Dt=  5.00000E-02 [y] snes_conv_reason:    3
  newton =   1 [      34] linear =   124 [      3940] cuts =  0 [   0]
  --> max chng: dpmx=   2.0788E+00 dtmpmx=   3.6072E-01

== TH FLOW =====================================================================
 Step     27 Time=  7.50000E-01 Dt=  5.00000E-02 [y] snes_conv_reason:    3
  newton =   1 [      35] linear =   121 [      4061] cuts =  0 [   0]
  --> max chng: dpmx=   2.0430E+00 dtmpmx=   3.3817E-01

== TH FLOW =====================================================================
 Step     28 Time=  8.00000E-01 Dt=  5.00000E-02 [y] snes_conv_reason:    3
  newton =   1 [      36] linear =   119 [      4180] cuts =  0 [   0]
  --> max chng: dpmx=   2.0101E+00 dtmpmx=   3.2009E-01

== TH FLOW =====================================================================
 Step     29 Time=  8.50000E-01 Dt=  5.00000E-02 [y] snes_conv_reason:    3
  newton =   1 [      37] linear =   122 [      4302] cuts =  0 [   0]
  --> max chng: dpmx=   1.9811E+00 dtmpmx=   3.0387E-01

== TH FLOW =====================================================================
 Step     30 Time=  9.00000E-01 Dt=  5.00000E-02 [y] snes_conv_reason:    3
  newton =   1 [      38] linear =   121 [      4423] cuts =  0 [   0]
  --> max chng: dpmx=   1.9524E+00 dtmpmx=   2.8851E-01

== TH FLOW =====================================================================
 Step     31 Time=  9.50000E-01 Dt=  5.00000E-02 [y] snes_conv_reason:    3
  newton =   1 [      39] linear =   122 [      4545] cuts =  0 [   0]
  --> max chng: dpmx=   1.9261E+00 dtmpmx=   2.7638E-01

== TH FLOW =====================================================================
 Step     32 Time=  1.00000E+00 Dt=  5.00000E-02 [y] snes_conv_reason:    3
  newton =   1 [      40] linear =   123 [      4668] cuts =  0 [   0]
  --> max chng: dpmx=   1.9014E+00 dtmpmx=   2.6452E-01

== TH FLOW =====================================================================
 Step     33 Time=  1.05000E+00 Dt=  5.00000E-02 [y] snes_conv_reason:    3
  newton =   1 [      41] linear =   121 [      4789] cuts =  0 [   0]
  --> max chng: dpmx=   1.8774E+00 dtmpmx=   2.5368E-01

== TH FLOW =====================================================================
 Step     34 Time=  1.10000E+00 Dt=  5.00000E-02 [y] snes_conv_reason:    3
  newton =   1 [      42] linear =   125 [      4914] cuts =  0 [   0]
  --> max chng: dpmx=   1.8550E+00 dtmpmx=   2.4439E-01

== TH FLOW =====================================================================
 Step     35 Time=  1.15000E+00 Dt=  5.00000E-02 [y] snes_conv_reason:    3
  newton =   1 [      43] linear =   124 [      5038] cuts =  0 [   0]
  --> max chng: dpmx=   1.8326E+00 dtmpmx=   2.3520E-01

== TH FLOW =====================================================================
 Step     36 Time=  1.20000E+00 Dt=  5.00000E-02 [y] snes_conv_reason:    3
  newton =   1 [      44] linear =   123 [      5161] cuts =  0 [   0]
  --> max chng: dpmx=   1.8114E+00 dtmpmx=   2.2711E-01

== TH FLOW =====================================================================
 Step     37 Time=  1.25000E+00 Dt=  5.00000E-02 [y] snes_conv_reason:    3
  newton =   1 [      45] linear =   122 [      5283] cuts =  0 [   0]
  --> max chng: dpmx=   1.7902E+00 dtmpmx=   2.1968E-01

== TH FLOW =====================================================================
 Step     38 Time=  1.30000E+00 Dt=  5.00000E-02 [y] snes_conv_reason:    3
  newton =   1 [      46] linear =   121 [      5404] cuts =  0 [   0]
  --> max chng: dpmx=   1.7694E+00 dtmpmx=   2.1228E-01

== TH FLOW =====================================================================
 Step     39 Time=  1.35000E+00 Dt=  5.00000E-02 [y] snes_conv_reason:    3
  newton =   1 [      47] linear =   118 [      5522] cuts =  0 [   0]
  --> max chng: dpmx=   1.7497E+00 dtmpmx=   2.0601E-01

== TH FLOW =====================================================================
 Step     40 Time=  1.40000E+00 Dt=  5.00000E-02 [y] snes_conv_reason:    3
  newton =   1 [      48] linear =   124 [      5646] cuts =  0 [   0]
  --> max chng: dpmx=   1.7297E+00 dtmpmx=   1.9988E-01

== TH FLOW =====================================================================
 Step     41 Time=  1.45000E+00 Dt=  5.00000E-02 [y] snes_conv_reason:    3
  newton =   1 [      49] linear =   118 [      5764] cuts =  0 [   0]
  --> max chng: dpmx=   1.7105E+00 dtmpmx=   1.9385E-01

== TH FLOW =====================================================================
 Step     42 Time=  1.50000E+00 Dt=  5.00000E-02 [y] snes_conv_reason:    3
  newton =   1 [      50] linear =   120 [      5884] cuts =  0 [   0]
  --> max chng: dpmx=   1.6923E+00 dtmpmx=   1.8875E-01

== TH FLOW =====================================================================
 Step     43 Time=  1.55000E+00 Dt=  5.00000E-02 [y] snes_conv_reason:    3
  newton =   1 [      51] linear =   121 [      6005] cuts =  0 [   0]
  --> max chng: dpmx=   1.6731E+00 dtmpmx=   1.8358E-01

== TH FLOW =====================================================================
 Step     44 Time=  1.60000E+00 Dt=  5.00000E-02 [y] snes_conv_reason:    3
  newton =   1 [      52] linear =   120 [      6125] cuts =  0 [   0]
  --> max chng: dpmx=   1.6552E+00 dtmpmx=   1.7869E-01

== TH FLOW =====================================================================
 Step     45 Time=  1.65000E+00 Dt=  5.00000E-02 [y] snes_conv_reason:    3
  newton =   1 [      53] linear =   121 [      6246] cuts =  0 [   0]
  --> max chng: dpmx=   1.6365E+00 dtmpmx=   1.7431E-01

== TH FLOW =====================================================================
 Step     46 Time=  1.70000E+00 Dt=  5.00000E-02 [y] snes_conv_reason:    3
  newton =   1 [      54] linear =   115 [      6361] cuts =  0 [   0]
  --> max chng: dpmx=   1.6181E+00 dtmpmx=   1.6988E-01

== TH FLOW =====================================================================
 Step     47 Time=  1.75000E+00 Dt=  5.00000E-02 [y] snes_conv_reason:    3
  newton =   1 [      55] linear =   117 [      6478] cuts =  0 [   0]
  --> max chng: dpmx=   1.6013E+00 dtmpmx=   1.6583E-01

== TH FLOW =====================================================================
 Step     48 Time=  1.80000E+00 Dt=  5.00000E-02 [y] snes_conv_reason:    3
  newton =   1 [      56] linear =   122 [      6600] cuts =  0 [   0]
  --> max chng: dpmx=   1.5829E+00 dtmpmx=   1.6203E-01

== TH FLOW =====================================================================
 Step     49 Time=  1.85000E+00 Dt=  5.00000E-02 [y] snes_conv_reason:    3
  newton =   1 [      57] linear =   118 [      6718] cuts =  0 [   0]
  --> max chng: dpmx=   1.5657E+00 dtmpmx=   1.5817E-01

== TH FLOW =====================================================================
 Step     50 Time=  1.90000E+00 Dt=  5.00000E-02 [y] snes_conv_reason:    3
  newton =   1 [      58] linear =   119 [      6837] cuts =  0 [   0]
  --> max chng: dpmx=   1.5486E+00 dtmpmx=   1.5478E-01

== TH FLOW =====================================================================
 Step     51 Time=  1.95000E+00 Dt=  5.00000E-02 [y] snes_conv_reason:    3
  newton =   1 [      59] linear =   119 [      6956] cuts =  0 [   0]
  --> max chng: dpmx=   1.5313E+00 dtmpmx=   1.5144E-01

== TH FLOW =====================================================================
 Step     52 Time=  2.00000E+00 Dt=  5.00000E-02 [y] snes_conv_reason:    3
  newton =   1 [      60] linear =   121 [      7077] cuts =  0 [   0]
  --> max chng: dpmx=   1.5142E+00 dtmpmx=   1.4806E-01

== TH FLOW =====================================================================
 Step     53 Time=  2.05000E+00 Dt=  5.00000E-02 [y] snes_conv_reason:    3
  newton =   1 [      61] linear =   121 [      7198] cuts =  0 [   0]
  --> max chng: dpmx=   1.4969E+00 dtmpmx=   1.4516E-01

== TH FLOW =====================================================================
 Step     54 Time=  2.10000E+00 Dt=  5.00000E-02 [y] snes_conv_reason:    3
  newton =   1 [      62] linear =   118 [      7316] cuts =  0 [   0]
  --> max chng: dpmx=   1.4805E+00 dtmpmx=   1.4219E-01

== TH FLOW =====================================================================
 Step     55 Time=  2.15000E+00 Dt=  5.00000E-02 [y] snes_conv_reason:    3
  newton =   1 [      63] linear =   121 [      7437] cuts =  0 [   0]
  --> max chng: dpmx=   1.4636E+00 dtmpmx=   1.3930E-01

== TH FLOW =====================================================================
 Step     56 Time=  2.20000E+00 Dt=  5.00000E-02 [y] snes_conv_reason:    3
  newton =   1 [      64] linear =   120 [      7557] cuts =  0 [   0]
  --> max chng: dpmx=   1.4469E+00 dtmpmx=   1.3670E-01

== TH FLOW =====================================================================
 Step     57 Time=  2.25000E+00 Dt=  5.00000E-02 [y] snes_conv_reason:    3
  newton =   1 [      65] linear =   120 [      7677] cuts =  0 [   0]
  --> max chng: dpmx=   1.4308E+00 dtmpmx=   1.3405E-01

== TH FLOW =====================================================================
 Step     58 Time=  2.30000E+00 Dt=  5.00000E-02 [y] snes_conv_reason:    3
  newton =   1 [      66] linear =   117 [      7794] cuts =  0 [   0]
  --> max chng: dpmx=   1.4146E+00 dtmpmx=   1.3155E-01

== TH FLOW =====================================================================
 Step     59 Time=  2.35000E+00 Dt=  5.00000E-02 [y] snes_conv_reason:    3
  newton =   1 [      67] linear =   117 [      7911] cuts =  0 [   0]
  --> max chng: dpmx=   1.3973E+00 dtmpmx=   1.2921E-01

== TH FLOW =====================================================================
 Step     60 Time=  2.40000E+00 Dt=  5.00000E-02 [y] snes_conv_reason:    3
  newton =   1 [      68] linear =   120 [      8031] cuts =  0 [   0]
  --> max chng: dpmx=   1.3820E+00 dtmpmx=   1.2681E-01

== TH FLOW =====================================================================
 Step     61 Time=  2.45000E+00 Dt=  5.00000E-02 [y] snes_conv_reason:    3
  newton =   1 [      69] linear =   119 [      8150] cuts =  0 [   0]
  --> max chng: dpmx=   1.3651E+00 dtmpmx=   1.2464E-01

== TH FLOW =====================================================================
 Step     62 Time=  2.50000E+00 Dt=  5.00000E-02 [y] snes_conv_reason:    3
  newton =   1 [      70] linear =   120 [      8270] cuts =  0 [   0]
  --> max chng: dpmx=   1.3492E+00 dtmpmx=   1.2252E-01

== TH FLOW =====================================================================
 Step     63 Time=  2.55000E+00 Dt=  5.00000E-02 [y] snes_conv_reason:    3
  newton =   1 [      71] linear =   116 [      8386] cuts =  0 [   0]
  --> max chng: dpmx=   1.3329E+00 dtmpmx=   1.2034E-01

== TH FLOW =====================================================================
 Step     64 Time=  2.60000E+00 Dt=  5.00000E-02 [y] snes_conv_reason:    3
  newton =   1 [      72] linear =   116 [      8502] cuts =  0 [   0]
  --> max chng: dpmx=   1.3172E+00 dtmpmx=   1.1843E-01

== TH FLOW =====================================================================
 Step     65 Time=  2.65000E+00 Dt=  5.00000E-02 [y] snes_conv_reason:    3
  newton =   1 [      73] linear =   120 [      8622] cuts =  0 [   0]
  --> max chng: dpmx=   1.3016E+00 dtmpmx=   1.1650E-01

== TH FLOW =====================================================================
 Step     66 Time=  2.70000E+00 Dt=  5.00000E-02 [y] snes_conv_reason:    3
  newton =   1 [      74] linear =   120 [      8742] cuts =  0 [   0]
  --> max chng: dpmx=   1.2852E+00 dtmpmx=   1.1456E-01

== TH FLOW =====================================================================
 Step     67 Time=  2.75000E+00 Dt=  5.00000E-02 [y] snes_conv_reason:    3
  newton =   1 [      75] linear =   111 [      8853] cuts =  0 [   0]
  --> max chng: dpmx=   1.2693E+00 dtmpmx=   1.1283E-01

== TH FLOW =====================================================================
 Step     68 Time=  2.80000E+00 Dt=  5.00000E-02 [y] snes_conv_reason:    3
  newton =   1 [      76] linear =   117 [      8970] cuts =  0 [   0]
  --> max chng: dpmx=   1.2539E+00 dtmpmx=   1.1106E-01

== TH FLOW =====================================================================
 Step     69 Time=  2.85000E+00 Dt=  5.00000E-02 [y] snes_conv_reason:    3
  newton =   1 [      77] linear =   113 [      9083] cuts =  0 [   0]
  --> max chng: dpmx=   1.2381E+00 dtmpmx=   1.0934E-01

== TH FLOW =====================================================================
 Step     70 Time=  2.90000E+00 Dt=  5.00000E-02 [y] snes_conv_reason:    3
  newton =   1 [      78] linear =   123 [      9206] cuts =  0 [   0]
  --> max chng: dpmx=   1.2224E+00 dtmpmx=   1.0775E-01

== TH FLOW =====================================================================
 Step     71 Time=  2.95000E+00 Dt=  5.00000E-02 [y] snes_conv_reason:    3
  newton =   1 [      79] linear =   120 [      9326] cuts =  0 [   0]
  --> max chng: dpmx=   1.2069E+00 dtmpmx=   1.0612E-01

== TH FLOW =====================================================================
 Step     72 Time=  3.00000E+00 Dt=  5.00000E-02 [y] snes_conv_reason:    3
  newton =   1 [      80] linear =   113 [      9439] cuts =  0 [   0]
  --> max chng: dpmx=   1.1907E+00 dtmpmx=   1.0459E-01

== TH FLOW =====================================================================
 Step     73 Time=  3.05000E+00 Dt=  5.00000E-02 [y] snes_conv_reason:    3
  newton =   1 [      81] linear =   115 [      9554] cuts =  0 [   0]
  --> max chng: dpmx=   1.1763E+00 dtmpmx=   1.0312E-01

== TH FLOW =====================================================================
 Step     74 Time=  3.10000E+00 Dt=  5.00000E-02 [y] snes_conv_reason:    3
  newton =   1 [      82] linear =   112 [      9666] cuts =  0 [   0]
  --> max chng: dpmx=   1.1602E+00 dtmpmx=   1.0161E-01

== TH FLOW =====================================================================
 Step     75 Time=  3.15000E+00 Dt=  5.00000E-02 [y] snes_conv_reason:    3
  newton =   1 [      83] linear =   120 [      9786] cuts =  0 [   0]
  --> max chng: dpmx=   1.1446E+00 dtmpmx=   1.0024E-01

== TH FLOW =====================================================================
 Step     76 Time=  3.20000E+00 Dt=  5.00000E-02 [y] snes_conv_reason:    3
  newton =   1 [      84] linear =   111 [      9897] cuts =  0 [   0]
  --> max chng: dpmx=   1.1292E+00 dtmpmx=   9.8877E-02

== TH FLOW =====================================================================
 Step     77 Time=  3.25000E+00 Dt=  5.00000E-02 [y] snes_conv_reason:    3
  newton =   1 [      85] linear =   115 [     10012] cuts =  0 [   0]
  --> max chng: dpmx=   1.1137E+00 dtmpmx=   9.7474E-02

== TH FLOW =====================================================================
 Step     78 Time=  3.30000E+00 Dt=  5.00000E-02 [y] snes_conv_reason:    3
  newton =   1 [      86] linear =   117 [     10129] cuts =  0 [   0]
  --> max chng: dpmx=   1.0985E+00 dtmpmx=   9.6247E-02

== TH FLOW =====================================================================
 Step     79 Time=  3.35000E+00 Dt=  5.00000E-02 [y] snes_conv_reason:    3
  newton =   1 [      87] linear =   117 [     10246] cuts =  0 [   0]
  --> max chng: dpmx=   1.0837E+00 dtmpmx=   9.4978E-02

== TH FLOW =====================================================================
 Step     80 Time=  3.40000E+00 Dt=  5.00000E-02 [y] snes_conv_reason:    3
  newton =   1 [      88] linear =   115 [     10361] cuts =  0 [   0]
  --> max chng: dpmx=   1.0680E+00 dtmpmx=   9.3713E-02

== TH FLOW =====================================================================
 Step     81 Time=  3.45000E+00 Dt=  5.00000E-02 [y] snes_conv_reason:    3
  newton =   1 [      89] linear =   118 [     10479] cuts =  0 [   0]
  --> max chng: dpmx=   1.0527E+00 dtmpmx=   9.2568E-02

== TH FLOW =====================================================================
 Step     82 Time=  3.50000E+00 Dt=  5.00000E-02 [y] snes_conv_reason:    3
  newton =   1 [      90] linear =   118 [     10597] cuts =  0 [   0]
  --> max chng: dpmx=   1.0377E+00 dtmpmx=   9.1383E-02

== TH FLOW =====================================================================
 Step     83 Time=  3.55000E+00 Dt=  5.00000E-02 [y] snes_conv_reason:    3
  newton =   1 [      91] linear =   116 [     10713] cuts =  0 [   0]
  --> max chng: dpmx=   1.0223E+00 dtmpmx=   9.0239E-02

== TH FLOW =====================================================================
 Step     84 Time=  3.60000E+00 Dt=  5.00000E-02 [y] snes_conv_reason:    3
  newton =   1 [      92] linear =   122 [     10835] cuts =  0 [   0]
  --> max chng: dpmx=   1.0073E+00 dtmpmx=   8.9166E-02

== TH FLOW =====================================================================
 Step     85 Time=  3.65000E+00 Dt=  5.00000E-02 [y] snes_conv_reason:   11
  newton =   1 [      93] linear =   115 [     10950] cuts =  0 [   0]
  --> max chng: dpmx=   9.9231E-01 dtmpmx=   8.8055E-02

== TH FLOW =====================================================================
 Step     86 Time=  3.70000E+00 Dt=  5.00000E-02 [y] snes_conv_reason:   11
  newton =   1 [      94] linear =   117 [     11067] cuts =  0 [   0]
  --> max chng: dpmx=   9.7672E-01 dtmpmx=   8.7019E-02

== TH FLOW =====================================================================
 Step     87 Time=  3.75000E+00 Dt=  5.00000E-02 [y] snes_conv_reason:   11
  newton =   1 [      95] linear =   120 [     11187] cuts =  0 [   0]
  --> max chng: dpmx=   9.6194E-01 dtmpmx=   8.6010E-02

== TH FLOW =====================================================================
 Step     88 Time=  3.80000E+00 Dt=  5.00000E-02 [y] snes_conv_reason:   11
  newton =   1 [      96] linear =   117 [     11304] cuts =  0 [   0]
  --> max chng: dpmx=   9.4697E-01 dtmpmx=   8.4967E-02

== TH FLOW =====================================================================
 Step     89 Time=  3.85000E+00 Dt=  5.00000E-02 [y] snes_conv_reason:   11
  newton =   1 [      97] linear =   122 [     11426] cuts =  0 [   0]
  --> max chng: dpmx=   9.3320E-01 dtmpmx=   8.4026E-02

== TH FLOW =====================================================================
 Step     90 Time=  3.90000E+00 Dt=  5.00000E-02 [y] snes_conv_reason:   11
  newton =   1 [      98] linear =   118 [     11544] cuts =  0 [   0]
  --> max chng: dpmx=   9.4398E-01 dtmpmx=   8.3076E-02

== TH FLOW =====================================================================
 Step     91 Time=  3.95000E+00 Dt=  5.00000E-02 [y] snes_conv_reason:   11
  newton =   1 [      99] linear =   116 [     11660] cuts =  0 [   0]
  --> max chng: dpmx=   9.5479E-01 dtmpmx=   8.2101E-02

== TH FLOW =====================================================================
 Step     92 Time=  4.00000E+00 Dt=  5.00000E-02 [y] snes_conv_reason:   11
  newton =   1 [     100] linear =   109 [     11769] cuts =  0 [   0]
  --> max chng: dpmx=   9.6579E-01 dtmpmx=   8.1237E-02

== TH FLOW =====================================================================
 Step     93 Time=  4.05000E+00 Dt=  5.00000E-02 [y] snes_conv_reason:   11
  newton =   1 [     101] linear =   115 [     11884] cuts =  0 [   0]
  --> max chng: dpmx=   9.7678E-01 dtmpmx=   8.0340E-02

== TH FLOW =====================================================================
 Step     94 Time=  4.10000E+00 Dt=  5.00000E-02 [y] snes_conv_reason:   11
  newton =   1 [     102] linear =   117 [     12001] cuts =  0 [   0]
  --> max chng: dpmx=   9.8796E-01 dtmpmx=   7.9449E-02

== TH FLOW =====================================================================
 Step     95 Time=  4.15000E+00 Dt=  5.00000E-02 [y] snes_conv_reason:   11
  newton =   1 [     103] linear =   117 [     12118] cuts =  0 [   0]
  --> max chng: dpmx=   9.9887E-01 dtmpmx=   7.8631E-02

== TH FLOW =====================================================================
 Step     96 Time=  4.20000E+00 Dt=  5.00000E-02 [y] snes_conv_reason:    3
  newton =   1 [     104] linear =   117 [     12235] cuts =  0 [   0]
  --> max chng: dpmx=   1.0099E+00 dtmpmx=   7.7782E-02

== TH FLOW =====================================================================
 Step     97 Time=  4.25000E+00 Dt=  5.00000E-02 [y] snes_conv_reason:    3
  newton =   1 [     105] linear =   117 [     12352] cuts =  0 [   0]
  --> max chng: dpmx=   1.0209E+00 dtmpmx=   7.6966E-02

== TH FLOW =====================================================================
 Step     98 Time=  4.30000E+00 Dt=  5.00000E-02 [y] snes_conv_reason:    3
  newton =   1 [     106] linear =   117 [     12469] cuts =  0 [   0]
  --> max chng: dpmx=   1.0321E+00 dtmpmx=   7.6190E-02

== TH FLOW =====================================================================
 Step     99 Time=  4.35000E+00 Dt=  5.00000E-02 [y] snes_conv_reason:    3
  newton =   1 [     107] linear =   122 [     12591] cuts =  0 [   0]
  --> max chng: dpmx=   1.0433E+00 dtmpmx=   7.5385E-02

== TH FLOW =====================================================================
 Step    100 Time=  4.40000E+00 Dt=  5.00000E-02 [y] snes_conv_reason:    3
  newton =   1 [     108] linear =   120 [     12711] cuts =  0 [   0]
  --> max chng: dpmx=   1.0543E+00 dtmpmx=   7.4638E-02

== TH FLOW =====================================================================
 Step    101 Time=  4.45000E+00 Dt=  5.00000E-02 [y] snes_conv_reason:    3
  newton =   1 [     109] linear =   121 [     12832] cuts =  0 [   0]
  --> max chng: dpmx=   1.0654E+00 dtmpmx=   7.3900E-02

== TH FLOW =====================================================================
 Step    102 Time=  4.50000E+00 Dt=  5.00000E-02 [y] snes_conv_reason:    3
  newton =   1 [     110] linear =   126 [     12958] cuts =  0 [   0]
  --> max chng: dpmx=   1.0767E+00 dtmpmx=   7.3136E-02

== TH FLOW =====================================================================
 Step    103 Time=  4.55000E+00 Dt=  5.00000E-02 [y] snes_conv_reason:    3
  newton =   1 [     111] linear =   117 [     13075] cuts =  0 [   0]
  --> max chng: dpmx=   1.0879E+00 dtmpmx=   7.2449E-02

== TH FLOW =====================================================================
 Step    104 Time=  4.60000E+00 Dt=  5.00000E-02 [y] snes_conv_reason:    3
  newton =   1 [     112] linear =   113 [     13188] cuts =  0 [   0]
  --> max chng: dpmx=   1.0992E+00 dtmpmx=   7.1747E-02

== TH FLOW =====================================================================
 Step    105 Time=  4.65000E+00 Dt=  5.00000E-02 [y] snes_conv_reason:    3
  newton =   1 [     113] linear =   118 [     13306] cuts =  0 [   0]
  --> max chng: dpmx=   1.1102E+00 dtmpmx=   7.1031E-02

== TH FLOW =====================================================================
 Step    106 Time=  4.70000E+00 Dt=  5.00000E-02 [y] snes_conv_reason:    3
  newton =   1 [     114] linear =   118 [     13424] cuts =  0 [   0]
  --> max chng: dpmx=   1.1216E+00 dtmpmx=   7.0387E-02

== TH FLOW =====================================================================
 Step    107 Time=  4.75000E+00 Dt=  5.00000E-02 [y] snes_conv_reason:    3
  newton =   1 [     115] linear =   116 [     13540] cuts =  0 [   0]
  --> max chng: dpmx=   1.1330E+00 dtmpmx=   6.9718E-02

== TH FLOW =====================================================================
 Step    108 Time=  4.80000E+00 Dt=  5.00000E-02 [y] snes_conv_reason:    3
  newton =   1 [     116] linear =   117 [     13657] cuts =  0 [   0]
  --> max chng: dpmx=   1.1442E+00 dtmpmx=   6.9057E-02

== TH FLOW =====================================================================
 Step    109 Time=  4.85000E+00 Dt=  5.00000E-02 [y] snes_conv_reason:    3
  newton =   1 [     117] linear =   117 [     13774] cuts =  0 [   0]
  --> max chng: dpmx=   1.1555E+00 dtmpmx=   6.8442E-02

== TH FLOW =====================================================================
 Step    110 Time=  4.90000E+00 Dt=  5.00000E-02 [y] snes_conv_reason:    3
  newton =   1 [     118] linear =   115 [     13889] cuts =  0 [   0]
  --> max chng: dpmx=   1.1668E+00 dtmpmx=   6.7803E-02

== TH FLOW =====================================================================
 Step    111 Time=  4.95000E+00 Dt=  5.00000E-02 [y] snes_conv_reason:    3
  newton =   1 [     119] linear =   115 [     14004] cuts =  0 [   0]
  --> max chng: dpmx=   1.1781E+00 dtmpmx=   6.7192E-02

== TH FLOW =====================================================================
 Step    112 Time=  5.00000E+00 Dt=  5.00000E-02 [y] snes_conv_reason:    3
  newton =   1 [     120] linear =   118 [     14122] cuts =  0 [   0]
  --> max chng: dpmx=   1.1898E+00 dtmpmx=   6.6604E-02

== TH FLOW =====================================================================
 Step    113 Time=  5.05000E+00 Dt=  5.00000E-02 [y] snes_conv_reason:    3
  newton =   1 [     121] linear =   115 [     14237] cuts =  0 [   0]
  --> max chng: dpmx=   1.2009E+00 dtmpmx=   6.5993E-02

== TH FLOW =====================================================================
 Step    114 Time=  5.10000E+00 Dt=  5.00000E-02 [y] snes_conv_reason:    3
  newton =   1 [     122] linear =   116 [     14353] cuts =  0 [   0]
  --> max chng: dpmx=   1.2122E+00 dtmpmx=   6.5428E-02

== TH FLOW =====================================================================
 Step    115 Time=  5.15000E+00 Dt=  5.00000E-02 [y] snes_conv_reason:    3
  newton =   1 [     123] linear =   110 [     14463] cuts =  0 [   0]
  --> max chng: dpmx=   1.2239E+00 dtmpmx=   6.4864E-02

== TH FLOW =====================================================================
 Step    116 Time=  5.20000E+00 Dt=  5.00000E-02 [y] snes_conv_reason:    3
  newton =   1 [     124] linear =   114 [     14577] cuts =  0 [   0]
  --> max chng: dpmx=   1.2352E+00 dtmpmx=   6.4278E-02

== TH FLOW =====================================================================
 Step    117 Time=  5.25000E+00 Dt=  5.00000E-02 [y] snes_conv_reason:    3
  newton =   1 [     125] linear =   117 [     14694] cuts =  0 [   0]
  --> max chng: dpmx=   1.2466E+00 dtmpmx=   6.3755E-02

== TH FLOW =====================================================================
 Step    118 Time=  5.30000E+00 Dt=  5.00000E-02 [y] snes_conv_reason:    3
  newton =   1 [     126] linear =   115 [     14809] cuts =  0 [   0]
  --> max chng: dpmx=   1.2580E+00 dtmpmx=   6.3214E-02

== TH FLOW =====================================================================
 Step    119 Time=  5.35000E+00 Dt=  5.00000E-02 [y] snes_conv_reason:    3
  newton =   1 [     127] linear =   110 [     14919] cuts =  0 [   0]
  --> max chng: dpmx=   1.2697E+00 dtmpmx=   6.2666E-02

== TH FLOW =====================================================================
 Step    120 Time=  5.40000E+00 Dt=  5.00000E-02 [y] snes_conv_reason:    3
  newton =   1 [     128] linear =   117 [     15036] cuts =  0 [   0]
  --> max chng: dpmx=   1.2809E+00 dtmpmx=   6.2167E-02

== TH FLOW =====================================================================
 Step    121 Time=  5.45000E+00 Dt=  5.00000E-02 [y] snes_conv_reason:    3
  newton =   1 [     129] linear =   109 [     15145] cuts =  0 [   0]
  --> max chng: dpmx=   1.2927E+00 dtmpmx=   6.1648E-02

== TH FLOW =====================================================================
 Step    122 Time=  5.50000E+00 Dt=  5.00000E-02 [y] snes_conv_reason:    3
  newton =   1 [     130] linear =   113 [     15258] cuts =  0 [   0]
  --> max chng: dpmx=   1.3039E+00 dtmpmx=   6.1138E-02

== TH FLOW =====================================================================
 Step    123 Time=  5.55000E+00 Dt=  5.00000E-02 [y] snes_conv_reason:    3
  newton =   1 [     131] linear =   113 [     15371] cuts =  0 [   0]
  --> max chng: dpmx=   1.3155E+00 dtmpmx=   6.0658E-02

== TH FLOW =====================================================================
 Step    124 Time=  5.60000E+00 Dt=  5.00000E-02 [y] snes_conv_reason:    3
  newton =   1 [     132] linear =   121 [     15492] cuts =  0 [   0]
  --> max chng: dpmx=   1.3273E+00 dtmpmx=   6.0158E-02

== TH FLOW =====================================================================
 Step    125 Time=  5.65000E+00 Dt=  5.00000E-02 [y] snes_conv_reason:    3
  newton =   1 [     133] linear =   113 [     15605] cuts =  0 [   0]
  --> max chng: dpmx=   1.3388E+00 dtmpmx=   5.9684E-02

== TH FLOW =====================================================================
 Step    126 Time=  5.70000E+00 Dt=  5.00000E-02 [y] snes_conv_reason:    3
  newton =   1 [     134] linear =   118 [     15723] cuts =  0 [   0]
  --> max chng: dpmx=   1.3500E+00 dtmpmx=   5.9222E-02

== TH FLOW =====================================================================
 Step    127 Time=  5.75000E+00 Dt=  5.00000E-02 [y] snes_conv_reason:    3
  newton =   1 [     135] linear =   108 [     15831] cuts =  0 [   0]
  --> max chng: dpmx=   1.3618E+00 dtmpmx=   5.8741E-02

== TH FLOW =====================================================================
 Step    128 Time=  5.80000E+00 Dt=  5.00000E-02 [y] snes_conv_reason:    3
  newton =   1 [     136] linear =   108 [     15939] cuts =  0 [   0]
  --> max chng: dpmx=   1.3734E+00 dtmpmx=   5.8299E-02

== TH FLOW =====================================================================
 Step    129 Time=  5.85000E+00 Dt=  5.00000E-02 [y] snes_conv_reason:    3
  newton =   1 [     137] linear =   115 [     16054] cuts =  0 [   0]
  --> max chng: dpmx=   1.3847E+00 dtmpmx=   5.7853E-02

== TH FLOW =====================================================================
 Step    130 Time=  5.90000E+00 Dt=  5.00000E-02 [y] snes_conv_reason:    3
  newton =   1 [     138] linear =   115 [     16169] cuts =  0 [   0]
  --> max chng: dpmx=   1.3964E+00 dtmpmx=   5.7389E-02

== TH FLOW =====================================================================
 Step    131 Time=  5.95000E+00 Dt=  5.00000E-02 [y] snes_conv_reason:    3
  newton =   1 [     139] linear =   113 [     16282] cuts =  0 [   0]
  --> max chng: dpmx=   1.4081E+00 dtmpmx=   5.6977E-02

== TH FLOW =====================================================================
 Step    132 Time=  6.00000E+00 Dt=  5.00000E-02 [y] snes_conv_reason:    3
  newton =   1 [     140] linear =   114 [     16396] cuts =  0 [   0]
  --> max chng: dpmx=   1.4197E+00 dtmpmx=   5.6547E-02

== TH FLOW =====================================================================
 Step    133 Time=  6.05000E+00 Dt=  5.00000E-02 [y] snes_conv_reason:    3
  newton =   1 [     141] linear =   118 [     16514] cuts =  0 [   0]
  --> max chng: dpmx=   1.4312E+00 dtmpmx=   5.6114E-02

== TH FLOW =====================================================================
 Step    134 Time=  6.10000E+00 Dt=  5.00000E-02 [y] snes_conv_reason:    3
  newton =   1 [     142] linear =   117 [     16631] cuts =  0 [   0]
  --> max chng: dpmx=   1.4426E+00 dtmpmx=   5.5715E-02

== TH FLOW =====================================================================
 Step    135 Time=  6.15000E+00 Dt=  5.00000E-02 [y] snes_conv_reason:    3
  newton =   1 [     143] linear =   117 [     16748] cuts =  0 [   0]
  --> max chng: dpmx=   1.4542E+00 dtmpmx=   5.5299E-02

== TH FLOW =====================================================================
 Step    136 Time=  6.20000E+00 Dt=  5.00000E-02 [y] snes_conv_reason:    3
  newton =   1 [     144] linear =   112 [     16860] cuts =  0 [   0]
  --> max chng: dpmx=   1.4658E+00 dtmpmx=   5.4894E-02

== TH FLOW =====================================================================
 Step    137 Time=  6.25000E+00 Dt=  5.00000E-02 [y] snes_conv_reason:    3
  newton =   1 [     145] linear =   111 [     16971] cuts =  0 [   0]
  --> max chng: dpmx=   1.4773E+00 dtmpmx=   5.4509E-02

== TH FLOW =====================================================================
 Step    138 Time=  6.30000E+00 Dt=  5.00000E-02 [y] snes_conv_reason:    3
  newton =   1 [     146] linear =   115 [     17086] cuts =  0 [   0]
  --> max chng: dpmx=   1.4886E+00 dtmpmx=   5.4106E-02

== TH FLOW =====================================================================
 Step    139 Time=  6.35000E+00 Dt=  5.00000E-02 [y] snes_conv_reason:    3
  newton =   1 [     147] linear =   105 [     17191] cuts =  0 [   0]
  --> max chng: dpmx=   1.5003E+00 dtmpmx=   5.3728E-02

== TH FLOW =====================================================================
 Step    140 Time=  6.40000E+00 Dt=  5.00000E-02 [y] snes_conv_reason:    3
  newton =   1 [     148] linear =   111 [     17302] cuts =  0 [   0]
  --> max chng: dpmx=   1.5114E+00 dtmpmx=   5.3354E-02

== TH FLOW =====================================================================
 Step    141 Time=  6.45000E+00 Dt=  5.00000E-02 [y] snes_conv_reason:    3
  newton =   1 [     149] linear =   111 [     17413] cuts =  0 [   0]
  --> max chng: dpmx=   1.5223E+00 dtmpmx=   5.2964E-02

== TH FLOW =====================================================================
 Step    142 Time=  6.50000E+00 Dt=  5.00000E-02 [y] snes_conv_reason:    3
  newton =   1 [     150] linear =   105 [     17518] cuts =  0 [   0]
  --> max chng: dpmx=   1.5341E+00 dtmpmx=   5.2610E-02

== TH FLOW =====================================================================
 Step    143 Time=  6.55000E+00 Dt=  5.00000E-02 [y] snes_conv_reason:    3
  newton =   1 [     151] linear =   114 [     17632] cuts =  0 [   0]
  --> max chng: dpmx=   1.5445E+00 dtmpmx=   5.2248E-02

== TH FLOW =====================================================================
 Step    144 Time=  6.60000E+00 Dt=  5.00000E-02 [y] snes_conv_reason:    3
  newton =   1 [     152] linear =   109 [     17741] cuts =  0 [   0]
  --> max chng: dpmx=   1.5556E+00 dtmpmx=   5.1874E-02

== TH FLOW =====================================================================
 Step    145 Time=  6.65000E+00 Dt=  5.00000E-02 [y] snes_conv_reason:    3
  newton =   1 [     153] linear =   110 [     17851] cuts =  0 [   0]
  --> max chng: dpmx=   1.5662E+00 dtmpmx=   5.1538E-02

== TH FLOW =====================================================================
 Step    146 Time=  6.70000E+00 Dt=  5.00000E-02 [y] snes_conv_reason:    3
  newton =   1 [     154] linear =   110 [     17961] cuts =  0 [   0]
  --> max chng: dpmx=   1.5767E+00 dtmpmx=   5.1187E-02

== TH FLOW =====================================================================
 Step    147 Time=  6.75000E+00 Dt=  5.00000E-02 [y] snes_conv_reason:    3
  newton =   1 [     155] linear =   113 [     18074] cuts =  0 [   0]
  --> max chng: dpmx=   1.5871E+00 dtmpmx=   5.0836E-02

== TH FLOW =====================================================================
 Step    148 Time=  6.80000E+00 Dt=  5.00000E-02 [y] snes_conv_reason:    3
  newton =   1 [     156] linear =   116 [     18190] cuts =  0 [   0]
  --> max chng: dpmx=   1.5969E+00 dtmpmx=   5.0510E-02

== TH FLOW =====================================================================
 Step    149 Time=  6.85000E+00 Dt=  5.00000E-02 [y] snes_conv_reason:    3
  newton =   1 [     157] linear =   113 [     18303] cuts =  0 [   0]
  --> max chng: dpmx=   1.6064E+00 dtmpmx=   5.0168E-02

== TH FLOW =====================================================================
 Step    150 Time=  6.90000E+00 Dt=  5.00000E-02 [y] snes_conv_reason:    3
  newton =   1 [     158] linear =   113 [     18416] cuts =  0 [   0]
  --> max chng: dpmx=   1.6154E+00 dtmpmx=   4.9839E-02

== TH FLOW =====================================================================
 Step    151 Time=  6.95000E+00 Dt=  5.00000E-02 [y] snes_conv_reason:    3
  newton =   1 [     159] linear =   104 [     18520] cuts =  0 [   0]
  --> max chng: dpmx=   1.6241E+00 dtmpmx=   4.9522E-02

== TH FLOW =====================================================================
 Step    152 Time=  7.00000E+00 Dt=  5.00000E-02 [y] snes_conv_reason:    3
  newton =   1 [     160] linear =   105 [     18625] cuts =  0 [   0]
  --> max chng: dpmx=   1.6323E+00 dtmpmx=   4.9190E-02

== TH FLOW =====================================================================
 Step    153 Time=  7.05000E+00 Dt=  5.00000E-02 [y] snes_conv_reason:    3
  newton =   1 [     161] linear =   113 [     18738] cuts =  0 [   0]
  --> max chng: dpmx=   1.6397E+00 dtmpmx=   4.8881E-02

== TH FLOW =====================================================================
 Step    154 Time=  7.10000E+00 Dt=  5.00000E-02 [y] snes_conv_reason:    3
  newton =   1 [     162] linear =   117 [     18855] cuts =  0 [   0]
  --> max chng: dpmx=   1.6464E+00 dtmpmx=   4.8572E-02

== TH FLOW =====================================================================
 Step    155 Time=  7.15000E+00 Dt=  5.00000E-02 [y] snes_conv_reason:    3
  newton =   1 [     163] linear =   108 [     18963] cuts =  0 [   0]
  --> max chng: dpmx=   1.6524E+00 dtmpmx=   4.8249E-02

== TH FLOW =====================================================================
 Step    156 Time=  7.20000E+00 Dt=  5.00000E-02 [y] snes_conv_reason:    3
  newton =   1 [     164] linear =   111 [     19074] cuts =  0 [   0]
  --> max chng: dpmx=   1.6577E+00 dtmpmx=   4.7959E-02

== TH FLOW =====================================================================
 Step    157 Time=  7.25000E+00 Dt=  5.00000E-02 [y] snes_conv_reason:    3
  newton =   1 [     165] linear =   116 [     19190] cuts =  0 [   0]
  --> max chng: dpmx=   1.6615E+00 dtmpmx=   4.7658E-02

== TH FLOW =====================================================================
 Step    158 Time=  7.30000E+00 Dt=  5.00000E-02 [y] snes_conv_reason:    3
  newton =   1 [     166] linear =   111 [     19301] cuts =  0 [   0]
  --> max chng: dpmx=   1.6647E+00 dtmpmx=   4.7351E-02

== TH FLOW =====================================================================
 Step    159 Time=  7.35000E+00 Dt=  5.00000E-02 [y] snes_conv_reason:    3
  newton =   1 [     167] linear =   113 [     19414] cuts =  0 [   0]
  --> max chng: dpmx=   1.6663E+00 dtmpmx=   4.7071E-02

== TH FLOW =====================================================================
 Step    160 Time=  7.40000E+00 Dt=  5.00000E-02 [y] snes_conv_reason:    3
  newton =   1 [     168] linear =   113 [     19527] cuts =  0 [   0]
  --> max chng: dpmx=   1.6669E+00 dtmpmx=   4.6777E-02

== TH FLOW =====================================================================
 Step    161 Time=  7.45000E+00 Dt=  5.00000E-02 [y] snes_conv_reason:    3
  newton =   1 [     169] linear =   113 [     19640] cuts =  0 [   0]
  --> max chng: dpmx=   1.6659E+00 dtmpmx=   4.6488E-02

== TH FLOW =====================================================================
 Step    162 Time=  7.50000E+00 Dt=  5.00000E-02 [y] snes_conv_reason:    3
  newton =   1 [     170] linear =   106 [     19746] cuts =  0 [   0]
  --> max chng: dpmx=   1.6632E+00 dtmpmx=   4.6215E-02

== TH FLOW =====================================================================
 Step    163 Time=  7.55000E+00 Dt=  5.00000E-02 [y] snes_conv_reason:    3
  newton =   1 [     171] linear =   113 [     19859] cuts =  0 [   0]
  --> max chng: dpmx=   1.6589E+00 dtmpmx=   4.5929E-02

== TH FLOW =====================================================================
 Step    164 Time=  7.60000E+00 Dt=  5.00000E-02 [y] snes_conv_reason:    3
  newton =   1 [     172] linear =   117 [     19976] cuts =  0 [   0]
  --> max chng: dpmx=   1.6530E+00 dtmpmx=   4.5657E-02

== TH FLOW =====================================================================
 Step    165 Time=  7.65000E+00 Dt=  5.00000E-02 [y] snes_conv_reason:    3
  newton =   1 [     173] linear =   116 [     20092] cuts =  0 [   0]
  --> max chng: dpmx=   1.6449E+00 dtmpmx=   4.5390E-02

== TH FLOW =====================================================================
 Step    166 Time=  7.70000E+00 Dt=  5.00000E-02 [y] snes_conv_reason:    3
  newton =   1 [     174] linear =   116 [     20208] cuts =  0 [   0]
  --> max chng: dpmx=   1.6350E+00 dtmpmx=   4.5111E-02

== TH FLOW =====================================================================
 Step    167 Time=  7.75000E+00 Dt=  5.00000E-02 [y] snes_conv_reason:    3
  newton =   1 [     175] linear =   116 [     20324] cuts =  0 [   0]
  --> max chng: dpmx=   1.6230E+00 dtmpmx=   4.4854E-02

== TH FLOW =====================================================================
 Step    168 Time=  7.80000E+00 Dt=  5.00000E-02 [y] snes_conv_reason:    3
  newton =   1 [     176] linear =   115 [     20439] cuts =  0 [   0]
  --> max chng: dpmx=   1.6085E+00 dtmpmx=   4.4593E-02

== TH FLOW =====================================================================
 Step    169 Time=  7.85000E+00 Dt=  5.00000E-02 [y] snes_conv_reason:    3
  newton =   1 [     177] linear =   115 [     20554] cuts =  0 [   0]
  --> max chng: dpmx=   1.5918E+00 dtmpmx=   4.4322E-02

== TH FLOW =====================================================================
 Step    170 Time=  7.90000E+00 Dt=  5.00000E-02 [y] snes_conv_reason:    3
  newton =   1 [     178] linear =   115 [     20669] cuts =  0 [   0]
  --> max chng: dpmx=   1.5729E+00 dtmpmx=   4.4078E-02

== TH FLOW =====================================================================
 Step    171 Time=  7.95000E+00 Dt=  5.00000E-02 [y] snes_conv_reason:    3
  newton =   1 [     179] linear =   107 [     20776] cuts =  0 [   0]
  --> max chng: dpmx=   1.5516E+00 dtmpmx=   4.3823E-02

== TH FLOW =====================================================================
 Step    172 Time=  8.00000E+00 Dt=  5.00000E-02 [y] snes_conv_reason:    3
  newton =   1 [     180] linear =   118 [     20894] cuts =  0 [   0]
  --> max chng: dpmx=   1.5276E+00 dtmpmx=   4.3567E-02

== TH FLOW =====================================================================
 Step    173 Time=  8.05000E+00 Dt=  5.00000E-02 [y] snes_conv_reason:    3
  newton =   1 [     181] linear =   112 [     21006] cuts =  0 [   0]
  --> max chng: dpmx=   1.5014E+00 dtmpmx=   4.3329E-02

== TH FLOW =====================================================================
 Step    174 Time=  8.10000E+00 Dt=  5.00000E-02 [y] snes_conv_reason:    3
  newton =   1 [     182] linear =   102 [     21108] cuts =  0 [   0]
  --> max chng: dpmx=   1.4730E+00 dtmpmx=   4.3079E-02

== TH FLOW =====================================================================
 Step    175 Time=  8.15000E+00 Dt=  5.00000E-02 [y] snes_conv_reason:    3
  newton =   1 [     183] linear =   116 [     21224] cuts =  0 [   0]
  --> max chng: dpmx=   1.4422E+00 dtmpmx=   4.2837E-02

== TH FLOW =====================================================================
 Step    176 Time=  8.20000E+00 Dt=  5.00000E-02 [y] snes_conv_reason:    3
  newton =   1 [     184] linear =   117 [     21341] cuts =  0 [   0]
  --> max chng: dpmx=   1.4087E+00 dtmpmx=   4.2604E-02

== TH FLOW =====================================================================
 Step    177 Time=  8.25000E+00 Dt=  5.00000E-02 [y] snes_conv_reason:    3
  newton =   1 [     185] linear =   113 [     21454] cuts =  0 [   0]
  --> max chng: dpmx=   1.3732E+00 dtmpmx=   4.2360E-02

== TH FLOW =====================================================================
 Step    178 Time=  8.30000E+00 Dt=  5.00000E-02 [y] snes_conv_reason:    3
  newton =   1 [     186] linear =   116 [     21570] cuts =  0 [   0]
  --> max chng: dpmx=   1.3359E+00 dtmpmx=   4.2130E-02

== TH FLOW =====================================================================
 Step    179 Time=  8.35000E+00 Dt=  5.00000E-02 [y] snes_conv_reason:    3
  newton =   1 [     187] linear =   116 [     21686] cuts =  0 [   0]
  --> max chng: dpmx=   1.2962E+00 dtmpmx=   4.1902E-02

== TH FLOW =====================================================================
 Step    180 Time=  8.40000E+00 Dt=  5.00000E-02 [y] snes_conv_reason:    3
  newton =   1 [     188] linear =   113 [     21799] cuts =  0 [   0]
  --> max chng: dpmx=   1.2548E+00 dtmpmx=   4.1663E-02

== TH FLOW =====================================================================
 Step    181 Time=  8.45000E+00 Dt=  5.00000E-02 [y] snes_conv_reason:    3
  newton =   1 [     189] linear =   116 [     21915] cuts =  0 [   0]
  --> max chng: dpmx=   1.2119E+00 dtmpmx=   4.1446E-02

== TH FLOW =====================================================================
 Step    182 Time=  8.50000E+00 Dt=  5.00000E-02 [y] snes_conv_reason:    3
  newton =   1 [     190] linear =   114 [     22029] cuts =  0 [   0]
  --> max chng: dpmx=   1.1675E+00 dtmpmx=   4.1222E-02

== TH FLOW =====================================================================
 Step    183 Time=  8.55000E+00 Dt=  5.00000E-02 [y] snes_conv_reason:    3
  newton =   1 [     191] linear =   116 [     22145] cuts =  0 [   0]
  --> max chng: dpmx=   1.1219E+00 dtmpmx=   4.0993E-02

== TH FLOW =====================================================================
 Step    184 Time=  8.60000E+00 Dt=  5.00000E-02 [y] snes_conv_reason:    3
  newton =   1 [     192] linear =   118 [     22263] cuts =  0 [   0]
  --> max chng: dpmx=   1.0752E+00 dtmpmx=   4.0783E-02

== TH FLOW =====================================================================
 Step    185 Time=  8.65000E+00 Dt=  5.00000E-02 [y] snes_conv_reason:    3
  newton =   1 [     193] linear =   110 [     22373] cuts =  0 [   0]
  --> max chng: dpmx=   1.0278E+00 dtmpmx=   4.0563E-02

== TH FLOW =====================================================================
 Step    186 Time=  8.70000E+00 Dt=  5.00000E-02 [y] snes_conv_reason:   11
  newton =   1 [     194] linear =   117 [     22490] cuts =  0 [   0]
  --> max chng: dpmx=   9.8010E-01 dtmpmx=   4.0340E-02

== TH FLOW =====================================================================
 Step    187 Time=  8.75000E+00 Dt=  5.00000E-02 [y] snes_conv_reason:   11
  newton =   1 [     195] linear =   116 [     22606] cuts =  0 [   0]
  --> max chng: dpmx=   9.3171E-01 dtmpmx=   4.0089E-02

== TH FLOW =====================================================================
 Step    188 Time=  8.80000E+00 Dt=  5.00000E-02 [y] snes_conv_reason:   11
  newton =   1 [     196] linear =   118 [     22724] cuts =  0 [   0]
  --> max chng: dpmx=   8.8353E-01 dtmpmx=   3.9673E-02

== TH FLOW =====================================================================
 Step    189 Time=  8.85000E+00 Dt=  5.00000E-02 [y] snes_conv_reason:   11
  newton =   1 [     197] linear =   114 [     22838] cuts =  0 [   0]
  --> max chng: dpmx=   8.3548E-01 dtmpmx=   3.9099E-02

== TH FLOW =====================================================================
 Step    190 Time=  8.90000E+00 Dt=  5.00000E-02 [y] snes_conv_reason:   11
  newton =   1 [     198] linear =   119 [     22957] cuts =  0 [   0]
  --> max chng: dpmx=   7.8779E-01 dtmpmx=   3.8376E-02

== TH FLOW =====================================================================
 Step    191 Time=  8.95000E+00 Dt=  5.00000E-02 [y] snes_conv_reason:   11
  newton =   1 [     199] linear =   119 [     23076] cuts =  0 [   0]
  --> max chng: dpmx=   7.4076E-01 dtmpmx=   3.7512E-02

== TH FLOW =====================================================================
 Step    192 Time=  9.00000E+00 Dt=  5.00000E-02 [y] snes_conv_reason:   11
  newton =   1 [     200] linear =   118 [     23194] cuts =  0 [   0]
  --> max chng: dpmx=   6.9459E-01 dtmpmx=   3.6522E-02

== TH FLOW =====================================================================
 Step    193 Time=  9.05000E+00 Dt=  5.00000E-02 [y] snes_conv_reason:   11
  newton =   1 [     201] linear =   121 [     23315] cuts =  0 [   0]
  --> max chng: dpmx=   6.4954E-01 dtmpmx=   3.5491E-02

== TH FLOW =====================================================================
 Step    194 Time=  9.10000E+00 Dt=  5.00000E-02 [y] snes_conv_reason:   11
  newton =   1 [     202] linear =   121 [     23436] cuts =  0 [   0]
  --> max chng: dpmx=   6.0554E-01 dtmpmx=   3.4384E-02

== TH FLOW =====================================================================
 Step    195 Time=  9.15000E+00 Dt=  5.00000E-02 [y] snes_conv_reason:   11
  newton =   1 [     203] linear =   121 [     23557] cuts =  0 [   0]
  --> max chng: dpmx=   5.6296E-01 dtmpmx=   3.3181E-02

== TH FLOW =====================================================================
 Step    196 Time=  9.20000E+00 Dt=  5.00000E-02 [y] snes_conv_reason:   11
  newton =   1 [     204] linear =   121 [     23678] cuts =  0 [   0]
  --> max chng: dpmx=   5.2190E-01 dtmpmx=   3.1899E-02

== TH FLOW =====================================================================
 Step    197 Time=  9.25000E+00 Dt=  5.00000E-02 [y] snes_conv_reason:   11
  newton =   1 [     205] linear =   120 [     23798] cuts =  0 [   0]
  --> max chng: dpmx=   4.8247E-01 dtmpmx=   3.0549E-02

== TH FLOW =====================================================================
 Step    198 Time=  9.30000E+00 Dt=  5.00000E-02 [y] snes_conv_reason:   11
  newton =   1 [     206] linear =   120 [     23918] cuts =  0 [   0]
  --> max chng: dpmx=   4.4464E-01 dtmpmx=   2.9148E-02

== TH FLOW =====================================================================
 Step    199 Time=  9.35000E+00 Dt=  5.00000E-02 [y] snes_conv_reason:   11
  newton =   1 [     207] linear =   121 [     24039] cuts =  0 [   0]
  --> max chng: dpmx=   4.0871E-01 dtmpmx=   2.7709E-02

== TH FLOW =====================================================================
 Step    200 Time=  9.40000E+00 Dt=  5.00000E-02 [y] snes_conv_reason:   11
  newton =   1 [     208] linear =   123 [     24162] cuts =  0 [   0]
  --> max chng: dpmx=   3.7458E-01 dtmpmx=   2.6246E-02

== TH FLOW =====================================================================
 Step    201 Time=  9.45000E+00 Dt=  5.00000E-02 [y] snes_conv_reason:   11
  newton =   1 [     209] linear =   124 [     24286] cuts =  0 [   0]
  --> max chng: dpmx=   3.4229E-01 dtmpmx=   2.4771E-02

== TH FLOW =====================================================================
 Step    202 Time=  9.50000E+00 Dt=  5.00000E-02 [y] snes_conv_reason:   11
  newton =   1 [     210] linear =   118 [     24404] cuts =  0 [   0]
  --> max chng: dpmx=   3.1192E-01 dtmpmx=   2.3297E-02

== TH FLOW =====================================================================
 Step    203 Time=  9.55000E+00 Dt=  5.00000E-02 [y] snes_conv_reason:   11
  newton =   1 [     211] linear =   122 [     24526] cuts =  0 [   0]
  --> max chng: dpmx=   2.8338E-01 dtmpmx=   2.1834E-02

== TH FLOW =====================================================================
 Step    204 Time=  9.60000E+00 Dt=  5.00000E-02 [y] snes_conv_reason:   11
  newton =   1 [     212] linear =   123 [     24649] cuts =  0 [   0]
  --> max chng: dpmx=   2.5678E-01 dtmpmx=   2.0394E-02

== TH FLOW =====================================================================
 Step    205 Time=  9.65000E+00 Dt=  5.00000E-02 [y] snes_conv_reason:   11
  newton =   1 [     213] linear =   123 [     24772] cuts =  0 [   0]
  --> max chng: dpmx=   2.3198E-01 dtmpmx=   1.8984E-02

== TH FLOW =====================================================================
 Step    206 Time=  9.70000E+00 Dt=  5.00000E-02 [y] snes_conv_reason:   11
  newton =   1 [     214] linear =   122 [     24894] cuts =  0 [   0]
  --> max chng: dpmx=   2.0901E-01 dtmpmx=   1.7613E-02

== TH FLOW =====================================================================
 Step    207 Time=  9.75000E+00 Dt=  5.00000E-02 [y] snes_conv_reason:   11
  newton =   1 [     215] linear =   124 [     25018] cuts =  0 [   0]
  --> max chng: dpmx=   1.8772E-01 dtmpmx=   1.6287E-02

== TH FLOW =====================================================================
 Step    208 Time=  9.80000E+00 Dt=  5.00000E-02 [y] snes_conv_reason:   11
  newton =   1 [     216] linear =   122 [     25140] cuts =  0 [   0]
  --> max chng: dpmx=   1.6816E-01 dtmpmx=   1.5012E-02

== TH FLOW =====================================================================
 Step    209 Time=  9.85000E+00 Dt=  5.00000E-02 [y] snes_conv_reason:   11
  newton =   1 [     217] linear =   122 [     25262] cuts =  0 [   0]
  --> max chng: dpmx=   1.5018E-01 dtmpmx=   1.3793E-02

== TH FLOW =====================================================================
 Step    210 Time=  9.90000E+00 Dt=  5.00000E-02 [y] snes_conv_reason:   11
  newton =   1 [     218] linear =   123 [     25385] cuts =  0 [   0]
  --> max chng: dpmx=   1.3377E-01 dtmpmx=   1.2633E-02

== TH FLOW =====================================================================
 Step    211 Time=  9.95000E+00 Dt=  5.00000E-02 [y] snes_conv_reason:   11
  newton =   1 [     219] linear =   124 [     25509] cuts =  0 [   0]
  --> max chng: dpmx=   1.1880E-01 dtmpmx=   1.1534E-02

== TH FLOW =====================================================================
 Step    212 Time=  1.00000E+01 Dt=  5.00000E-02 [y] snes_conv_reason:   11
  newton =   1 [     220] linear =   125 [     25634] cuts =  0 [   0]
  --> max chng: dpmx=   1.0518E-01 dtmpmx=   1.0498E-02

== TH FLOW =====================================================================
 Step    213 Time=  1.00500E+01 Dt=  5.00000E-02 [y] snes_conv_reason:   11
  newton =   1 [     221] linear =   124 [     25758] cuts =  0 [   0]
  --> max chng: dpmx=   9.2874E-02 dtmpmx=   9.5262E-03

== TH FLOW =====================================================================
 Step    214 Time=  1.01000E+01 Dt=  5.00000E-02 [y] snes_conv_reason:   11
  newton =   1 [     222] linear =   126 [     25884] cuts =  0 [   0]
  --> max chng: dpmx=   8.1759E-02 dtmpmx=   8.6179E-03

== TH FLOW =====================================================================
 Step    215 Time=  1.01500E+01 Dt=  5.00000E-02 [y] snes_conv_reason:   11
  newton =   1 [     223] linear =   122 [     26006] cuts =  0 [   0]
  --> max chng: dpmx=   7.1785E-02 dtmpmx=   7.7727E-03

== TH FLOW =====================================================================
 Step    216 Time=  1.02000E+01 Dt=  5.00000E-02 [y] snes_conv_reason:   11
  newton =   1 [     224] linear =   126 [     26132] cuts =  0 [   0]
  --> max chng: dpmx=   6.2789E-02 dtmpmx=   6.9894E-03

== TH FLOW =====================================================================
 Step    217 Time=  1.02500E+01 Dt=  5.00000E-02 [y] snes_conv_reason:   11
  newton =   1 [     225] linear =   129 [     26261] cuts =  0 [   0]
  --> max chng: dpmx=   5.4809E-02 dtmpmx=   6.2663E-03

== TH FLOW =====================================================================
 Step    218 Time=  1.03000E+01 Dt=  5.00000E-02 [y] snes_conv_reason:   11
  newton =   1 [     226] linear =   128 [     26389] cuts =  0 [   0]
  --> max chng: dpmx=   4.7675E-02 dtmpmx=   5.6014E-03

== TH FLOW =====================================================================
 Step    219 Time=  1.03500E+01 Dt=  5.00000E-02 [y] snes_conv_reason:   11
  newton =   1 [     227] linear =   125 [     26514] cuts =  0 [   0]
  --> max chng: dpmx=   4.1344E-02 dtmpmx=   4.9922E-03

== TH FLOW =====================================================================
 Step    220 Time=  1.04000E+01 Dt=  5.00000E-02 [y] snes_conv_reason:   11
  newton =   1 [     228] linear =   125 [     26639] cuts =  0 [   0]
  --> max chng: dpmx=   3.5735E-02 dtmpmx=   4.4361E-03

== TH FLOW =====================================================================
 Step    221 Time=  1.04500E+01 Dt=  5.00000E-02 [y] snes_conv_reason:   11
  newton =   1 [     229] linear =   123 [     26762] cuts =  0 [   0]
  --> max chng: dpmx=   3.0795E-02 dtmpmx=   3.9302E-03

== TH FLOW =====================================================================
 Step    222 Time=  1.05000E+01 Dt=  5.00000E-02 [y] snes_conv_reason:   11
  newton =   1 [     230] linear =   123 [     26885] cuts =  0 [   0]
  --> max chng: dpmx=   2.6449E-02 dtmpmx=   3.4717E-03

== TH FLOW =====================================================================
 Step    223 Time=  1.05500E+01 Dt=  5.00000E-02 [y] snes_conv_reason:   11
  newton =   1 [     231] linear =   121 [     27006] cuts =  0 [   0]
  --> max chng: dpmx=   2.2635E-02 dtmpmx=   3.0574E-03

== TH FLOW =====================================================================
 Step    224 Time=  1.06000E+01 Dt=  5.00000E-02 [y] snes_conv_reason:   11
  newton =   1 [     232] linear =   123 [     27129] cuts =  0 [   0]
  --> max chng: dpmx=   1.9311E-02 dtmpmx=   2.6844E-03

== TH FLOW =====================================================================
 Step    225 Time=  1.06500E+01 Dt=  5.00000E-02 [y] snes_conv_reason:   11
  newton =   1 [     233] linear =   124 [     27253] cuts =  0 [   0]
  --> max chng: dpmx=   1.6409E-02 dtmpmx=   2.3496E-03

== TH FLOW =====================================================================
 Step    226 Time=  1.07000E+01 Dt=  5.00000E-02 [y] snes_conv_reason:   11
  newton =   1 [     234] linear =   124 [     27377] cuts =  0 [   0]
  --> max chng: dpmx=   1.3891E-02 dtmpmx=   2.0501E-03

== TH FLOW =====================================================================
 Step    227 Time=  1.07500E+01 Dt=  5.00000E-02 [y] snes_conv_reason:   11
  newton =   1 [     235] linear =   126 [     27503] cuts =  0 [   0]
  --> max chng: dpmx=   1.1716E-02 dtmpmx=   1.7830E-03

== TH FLOW =====================================================================
 Step    228 Time=  1.08000E+01 Dt=  5.00000E-02 [y] snes_conv_reason:   11
  newton =   1 [     236] linear =   125 [     27628] cuts =  0 [   0]
  --> max chng: dpmx=   9.8394E-03 dtmpmx=   1.5455E-03

== TH FLOW =====================================================================
 Step    229 Time=  1.08500E+01 Dt=  5.00000E-02 [y] snes_conv_reason:   11
  newton =   1 [     237] linear =   127 [     27755] cuts =  0 [   0]
  --> max chng: dpmx=   8.2244E-03 dtmpmx=   1.3351E-03

== TH FLOW =====================================================================
 Step    230 Time=  1.09000E+01 Dt=  5.00000E-02 [y] snes_conv_reason:   11
  newton =   1 [     238] linear =   125 [     27880] cuts =  0 [   0]
  --> max chng: dpmx=   6.8435E-03 dtmpmx=   1.1491E-03

== TH FLOW =====================================================================
 Step    231 Time=  1.09500E+01 Dt=  5.00000E-02 [y] snes_conv_reason:   11
  newton =   1 [     239] linear =   123 [     28003] cuts =  0 [   0]
  --> max chng: dpmx=   5.6675E-03 dtmpmx=   9.8521E-04

== TH FLOW =====================================================================
 Step    232 Time=  1.10000E+01 Dt=  5.00000E-02 [y] snes_conv_reason:   11
  newton =   1 [     240] linear =   124 [     28127] cuts =  0 [   0]
  --> max chng: dpmx=   4.6668E-03 dtmpmx=   8.4125E-04

== TH FLOW =====================================================================
 Step    233 Time=  1.10500E+01 Dt=  5.00000E-02 [y] snes_conv_reason:   11
  newton =   1 [     241] linear =   125 [     28252] cuts =  0 [   0]
  --> max chng: dpmx=   4.0966E-03 dtmpmx=   7.1514E-04

== TH FLOW =====================================================================
 Step    234 Time=  1.11000E+01 Dt=  5.00000E-02 [y] snes_conv_reason:   11
  newton =   1 [     242] linear =   122 [     28374] cuts =  0 [   0]
  --> max chng: dpmx=   4.4030E-03 dtmpmx=   6.0499E-04

== TH FLOW =====================================================================
 Step    235 Time=  1.11500E+01 Dt=  5.00000E-02 [y] snes_conv_reason:   11
  newton =   1 [     243] linear =   123 [     28497] cuts =  0 [   0]
  --> max chng: dpmx=   4.6709E-03 dtmpmx=   5.0904E-04

== TH FLOW =====================================================================
 Step    236 Time=  1.12000E+01 Dt=  5.00000E-02 [y] snes_conv_reason:   11
  newton =   1 [     244] linear =   122 [     28619] cuts =  0 [   0]
  --> max chng: dpmx=   4.9067E-03 dtmpmx=   4.2569E-04

== TH FLOW =====================================================================
 Step    237 Time=  1.12500E+01 Dt=  5.00000E-02 [y] snes_conv_reason:   11
  newton =   1 [     245] linear =   122 [     28741] cuts =  0 [   0]
  --> max chng: dpmx=   5.1118E-03 dtmpmx=   3.5348E-04

== TH FLOW =====================================================================
 Step    238 Time=  1.13000E+01 Dt=  5.00000E-02 [y] snes_conv_reason:   11
  newton =   1 [     246] linear =   125 [     28866] cuts =  0 [   0]
  --> max chng: dpmx=   5.2894E-03 dtmpmx=   2.9109E-04

== TH FLOW =====================================================================
 Step    239 Time=  1.13500E+01 Dt=  5.00000E-02 [y] snes_conv_reason:   11
  newton =   1 [     247] linear =   123 [     28989] cuts =  0 [   0]
  --> max chng: dpmx=   5.4431E-03 dtmpmx=   2.3733E-04

== TH FLOW =====================================================================
 Step    240 Time=  1.14000E+01 Dt=  5.00000E-02 [y] snes_conv_reason:   11
  newton =   1 [     248] linear =   125 [     29114] cuts =  0 [   0]
  --> max chng: dpmx=   5.5752E-03 dtmpmx=   1.9113E-04

== TH FLOW =====================================================================
 Step    241 Time=  1.14500E+01 Dt=  5.00000E-02 [y] snes_conv_reason:   11
  newton =   1 [     249] linear =   119 [     29233] cuts =  0 [   0]
  --> max chng: dpmx=   5.6891E-03 dtmpmx=   1.5152E-04

== TH FLOW =====================================================================
 Step    242 Time=  1.15000E+01 Dt=  5.00000E-02 [y] snes_conv_reason:   11
  newton =   1 [     250] linear =   115 [     29348] cuts =  0 [   0]
  --> max chng: dpmx=   5.7869E-03 dtmpmx=   1.1765E-04

== TH FLOW =====================================================================
 Step    243 Time=  1.15500E+01 Dt=  5.00000E-02 [y] snes_conv_reason:   11
  newton =   1 [     251] linear =   119 [     29467] cuts =  0 [   0]
  --> max chng: dpmx=   5.8706E-03 dtmpmx=   8.8756E-05

== TH FLOW =====================================================================
 Step    244 Time=  1.16000E+01 Dt=  5.00000E-02 [y] snes_conv_reason:   11
  newton =   1 [     252] linear =   114 [     29581] cuts =  0 [   0]
  --> max chng: dpmx=   5.9420E-03 dtmpmx=   8.1555E-05

== TH FLOW =====================================================================
 Step    245 Time=  1.16500E+01 Dt=  5.00000E-02 [y] snes_conv_reason:   11
  newton =   1 [     253] linear =   111 [     29692] cuts =  0 [   0]
  --> max chng: dpmx=   6.0034E-03 dtmpmx=   8.1384E-05

== TH FLOW =====================================================================
 Step    246 Time=  1.17000E+01 Dt=  5.00000E-02 [y] snes_conv_reason:   11
  newton =   1 [     254] linear =   109 [     29801] cuts =  0 [   0]
  --> max chng: dpmx=   6.0554E-03 dtmpmx=   8.1219E-05

== TH FLOW =====================================================================
 Step    247 Time=  1.17500E+01 Dt=  5.00000E-02 [y] snes_conv_reason:   11
  newton =   1 [     255] linear =   103 [     29904] cuts =  0 [   0]
  --> max chng: dpmx=   6.0998E-03 dtmpmx=   8.1054E-05

== TH FLOW =====================================================================
 Step    248 Time=  1.18000E+01 Dt=  5.00000E-02 [y] snes_conv_reason:   11
  newton =   1 [     256] linear =   109 [     30013] cuts =  0 [   0]
  --> max chng: dpmx=   6.1362E-03 dtmpmx=   8.0892E-05

== TH FLOW =====================================================================
 Step    249 Time=  1.18500E+01 Dt=  5.00000E-02 [y] snes_conv_reason:   11
  newton =   1 [     257] linear =   106 [     30119] cuts =  0 [   0]
  --> max chng: dpmx=   6.1677E-03 dtmpmx=   8.0733E-05

== TH FLOW =====================================================================
 Step    250 Time=  1.19000E+01 Dt=  5.00000E-02 [y] snes_conv_reason:   11
  newton =   1 [     258] linear =   112 [     30231] cuts =  0 [   0]
  --> max chng: dpmx=   6.1947E-03 dtmpmx=   8.0574E-05

== TH FLOW =====================================================================
 Step    251 Time=  1.19500E+01 Dt=  5.00000E-02 [y] snes_conv_reason:   11
  newton =   1 [     259] linear =   113 [     30344] cuts =  0 [   0]
  --> max chng: dpmx=   6.2162E-03 dtmpmx=   8.0420E-05

== TH FLOW =====================================================================
 Step    252 Time=  1.20000E+01 Dt=  5.00000E-02 [y] snes_conv_reason:   11
  newton =   1 [     260] linear =   107 [     30451] cuts =  0 [   0]
  --> max chng: dpmx=   6.2347E-03 dtmpmx=   8.0265E-05

== TH FLOW =====================================================================
 Step    253 Time=  1.20500E+01 Dt=  5.00000E-02 [y] snes_conv_reason:   11
  newton =   1 [     261] linear =   108 [     30559] cuts =  0 [   0]
  --> max chng: dpmx=   6.2481E-03 dtmpmx=   8.0115E-05

== TH FLOW =====================================================================
 Step    254 Time=  1.21000E+01 Dt=  5.00000E-02 [y] snes_conv_reason:   11
  newton =   1 [     262] linear =   106 [     30665] cuts =  0 [   0]
  --> max chng: dpmx=   6.2596E-03 dtmpmx=   7.9964E-05

== TH FLOW =====================================================================
 Step    255 Time=  1.21500E+01 Dt=  5.00000E-02 [y] snes_conv_reason:   11
  newton =   1 [     263] linear =   103 [     30768] cuts =  0 [   0]
  --> max chng: dpmx=   6.2683E-03 dtmpmx=   7.9867E-05

== TH FLOW =====================================================================
 Step    256 Time=  1.22000E+01 Dt=  5.00000E-02 [y] snes_conv_reason:   11
  newton =   1 [     264] linear =   103 [     30871] cuts =  0 [   0]
  --> max chng: dpmx=   6.2731E-03 dtmpmx=   7.9826E-05

== TH FLOW =====================================================================
 Step    257 Time=  1.22500E+01 Dt=  5.00000E-02 [y] snes_conv_reason:   11
  newton =   1 [     265] linear =   111 [     30982] cuts =  0 [   0]
  --> max chng: dpmx=   6.2785E-03 dtmpmx=   7.9783E-05

[...]
 Step    493 Time=  2.40500E+01 Dt=  5.00000E-02 [y] snes_conv_reason:   11
  newton =   1 [     501] linear =   116 [     57703] cuts =  0 [   0]
  --> max chng: dpmx=   4.4047E-06 dtmpmx=   1.4116E-07

== TH FLOW =====================================================================
 Step    494 Time=  2.41000E+01 Dt=  5.00000E-02 [y] snes_conv_reason:   11
  newton =   1 [     502] linear =   115 [     57818] cuts =  0 [   0]
  --> max chng: dpmx=   4.2313E-06 dtmpmx=   1.3702E-07

== TH FLOW =====================================================================
 Step    495 Time=  2.41500E+01 Dt=  5.00000E-02 [y] snes_conv_reason:   11
  newton =   1 [     503] linear =   111 [     57929] cuts =  0 [   0]
  --> max chng: dpmx=   4.0599E-06 dtmpmx=   1.3296E-07

== TH FLOW =====================================================================
 Step    496 Time=  2.42000E+01 Dt=  5.00000E-02 [y] snes_conv_reason:   11
  newton =   1 [     504] linear =   115 [     58044] cuts =  0 [   0]
  --> max chng: dpmx=   3.8944E-06 dtmpmx=   1.2894E-07

== TH FLOW =====================================================================
 Step    497 Time=  2.42500E+01 Dt=  5.00000E-02 [y] snes_conv_reason:   11
  newton =   1 [     505] linear =   119 [     58163] cuts =  0 [   0]
  --> max chng: dpmx=   3.7338E-06 dtmpmx=   1.2490E-07

== TH FLOW =====================================================================
 Step    498 Time=  2.43000E+01 Dt=  5.00000E-02 [y] snes_conv_reason:   11
  newton =   1 [     506] linear =   119 [     58282] cuts =  0 [   0]
  --> max chng: dpmx=   3.5769E-06 dtmpmx=   1.2102E-07

== TH FLOW =====================================================================
 Step    499 Time=  2.43500E+01 Dt=  5.00000E-02 [y] snes_conv_reason:   11
  newton =   1 [     507] linear =   114 [     58396] cuts =  0 [   0]
  --> max chng: dpmx=   3.4244E-06 dtmpmx=   1.1710E-07

== TH FLOW =====================================================================
 Step    500 Time=  2.44000E+01 Dt=  5.00000E-02 [y] snes_conv_reason:   11
  newton =   1 [     508] linear =   119 [     58515] cuts =  0 [   0]
  --> max chng: dpmx=   3.2763E-06 dtmpmx=   1.1331E-07

== TH FLOW =====================================================================
 Step    501 Time=  2.44500E+01 Dt=  5.00000E-02 [y] snes_conv_reason:   11
  newton =   1 [     509] linear =   119 [     58634] cuts =  0 [   0]
  --> max chng: dpmx=   3.1326E-06 dtmpmx=   1.0952E-07

== TH FLOW =====================================================================
 Step    502 Time=  2.45000E+01 Dt=  5.00000E-02 [y] snes_conv_reason:   11
  newton =   1 [     510] linear =   119 [     58753] cuts =  0 [   0]
  --> max chng: dpmx=   2.9932E-06 dtmpmx=   1.0585E-07

== TH FLOW =====================================================================
 Step    503 Time=  2.45500E+01 Dt=  5.00000E-02 [y] snes_conv_reason:   11
  newton =   1 [     511] linear =   119 [     58872] cuts =  0 [   0]
  --> max chng: dpmx=   2.8579E-06 dtmpmx=   1.0217E-07

== TH FLOW =====================================================================
 Step    504 Time=  2.46000E+01 Dt=  5.00000E-02 [y] snes_conv_reason:   11
  newton =   1 [     512] linear =   121 [     58993] cuts =  0 [   0]
  --> max chng: dpmx=   2.7273E-06 dtmpmx=   9.8619E-08

== TH FLOW =====================================================================
 Step    505 Time=  2.46500E+01 Dt=  5.00000E-02 [y] snes_conv_reason:   11
  newton =   1 [     513] linear =   120 [     59113] cuts =  0 [   0]
  --> max chng: dpmx=   2.5998E-06 dtmpmx=   9.5081E-08

== TH FLOW =====================================================================
 Step    506 Time=  2.47000E+01 Dt=  5.00000E-02 [y] snes_conv_reason:   11
  newton =   1 [     514] linear =   118 [     59231] cuts =  0 [   0]
  --> max chng: dpmx=   2.4774E-06 dtmpmx=   9.1601E-08

== TH FLOW =====================================================================
 Step    507 Time=  2.47500E+01 Dt=  5.00000E-02 [y] snes_conv_reason:   11
  newton =   1 [     515] linear =   122 [     59353] cuts =  0 [   0]
  --> max chng: dpmx=   2.3583E-06 dtmpmx=   8.8239E-08

== TH FLOW =====================================================================
 Step    508 Time=  2.48000E+01 Dt=  5.00000E-02 [y] snes_conv_reason:   11
  newton =   1 [     516] linear =   118 [     59471] cuts =  0 [   0]
  --> max chng: dpmx=   2.2440E-06 dtmpmx=   8.4924E-08

== TH FLOW =====================================================================
 Step    509 Time=  2.48500E+01 Dt=  5.00000E-02 [y] snes_conv_reason:   11
  newton =   1 [     517] linear =   118 [     59589] cuts =  0 [   0]
  --> max chng: dpmx=   2.1330E-06 dtmpmx=   8.1680E-08

== TH FLOW =====================================================================
 Step    510 Time=  2.49000E+01 Dt=  5.00000E-02 [y] snes_conv_reason:   11
  newton =   1 [     518] linear =   117 [     59706] cuts =  0 [   0]
  --> max chng: dpmx=   2.0264E-06 dtmpmx=   7.8459E-08

== TH FLOW =====================================================================
 Step    511 Time=  2.49500E+01 Dt=  5.00000E-02 [y] snes_conv_reason:   11
  newton =   1 [     519] linear =   112 [     59818] cuts =  0 [   0]
  --> max chng: dpmx=   1.9235E-06 dtmpmx=   7.5371E-08

== TH FLOW =====================================================================
 Step    512 Time=  2.50000E+01 Dt=  5.00000E-02 [y] snes_conv_reason:   11
  newton =   1 [     520] linear =   118 [     59936] cuts =  0 [   0]
  --> max chng: dpmx=   1.8240E-06 dtmpmx=   7.2333E-08

== TH FLOW =====================================================================
 Step    513 Time=  2.50500E+01 Dt=  5.00000E-02 [y] snes_conv_reason:   11
  newton =   1 [     521] linear =   118 [     60054] cuts =  0 [   0]
  --> max chng: dpmx=   1.7282E-06 dtmpmx=   6.9353E-08

== TH FLOW =====================================================================
 Step    514 Time=  2.51000E+01 Dt=  5.00000E-02 [y] snes_conv_reason:   11
  newton =   1 [     522] linear =   119 [     60173] cuts =  0 [   0]
  --> max chng: dpmx=   1.6368E-06 dtmpmx=   6.6436E-08

== TH FLOW =====================================================================
 Step    515 Time=  2.51500E+01 Dt=  5.00000E-02 [y] snes_conv_reason:   11
  newton =   1 [     523] linear =   118 [     60291] cuts =  0 [   0]
  --> max chng: dpmx=   1.5482E-06 dtmpmx=   6.3598E-08

== TH FLOW =====================================================================
 Step    516 Time=  2.52000E+01 Dt=  5.00000E-02 [y] snes_conv_reason:   11
  newton =   1 [     524] linear =   118 [     60409] cuts =  0 [   0]
  --> max chng: dpmx=   1.4632E-06 dtmpmx=   6.0868E-08

== TH FLOW =====================================================================
 Step    517 Time=  2.52500E+01 Dt=  5.00000E-02 [y] snes_conv_reason:   11
  newton =   1 [     525] linear =   122 [     60531] cuts =  0 [   0]
  --> max chng: dpmx=   1.3822E-06 dtmpmx=   5.8200E-08

== TH FLOW =====================================================================
 Step    518 Time=  2.53000E+01 Dt=  5.00000E-02 [y] snes_conv_reason:   11
  newton =   1 [     526] linear =   120 [     60651] cuts =  0 [   0]
  --> max chng: dpmx=   1.3039E-06 dtmpmx=   5.5576E-08

== TH FLOW =====================================================================
 Step    519 Time=  2.53500E+01 Dt=  5.00000E-02 [y] snes_conv_reason:   11
  newton =   1 [     527] linear =   115 [     60766] cuts =  0 [   0]
  --> max chng: dpmx=   1.2290E-06 dtmpmx=   5.3054E-08

== TH FLOW =====================================================================
 Step    520 Time=  2.54000E+01 Dt=  5.00000E-02 [y] snes_conv_reason:   11
  newton =   1 [     528] linear =   120 [     60886] cuts =  0 [   0]
  --> max chng: dpmx=   1.1574E-06 dtmpmx=   5.0566E-08

== TH FLOW =====================================================================
 Step    521 Time=  2.54500E+01 Dt=  5.00000E-02 [y] snes_conv_reason:   11
  newton =   1 [     529] linear =   118 [     61004] cuts =  0 [   0]
  --> max chng: dpmx=   1.0888E-06 dtmpmx=   4.8192E-08

== TH FLOW =====================================================================
 Step    522 Time=  2.55000E+01 Dt=  5.00000E-02 [y] snes_conv_reason:   11
  newton =   1 [     530] linear =   120 [     61124] cuts =  0 [   0]
  --> max chng: dpmx=   1.0234E-06 dtmpmx=   4.5870E-08

== TH FLOW =====================================================================
 Step    523 Time=  2.55500E+01 Dt=  5.00000E-02 [y] snes_conv_reason:   11
  newton =   1 [     531] linear =   121 [     61245] cuts =  0 [   0]
  --> max chng: dpmx=   9.6078E-07 dtmpmx=   4.3622E-08

== TH FLOW =====================================================================
 Step    524 Time=  2.56000E+01 Dt=  5.00000E-02 [y] snes_conv_reason:   11
  newton =   1 [     532] linear =   119 [     61364] cuts =  0 [   0]
  --> max chng: dpmx=   9.0105E-07 dtmpmx=   4.1474E-08

== TH FLOW =====================================================================
 Step    525 Time=  2.56500E+01 Dt=  5.00000E-02 [y] snes_conv_reason:   11
  newton =   1 [     533] linear =   121 [     61485] cuts =  0 [   0]
  --> max chng: dpmx=   8.4413E-07 dtmpmx=   3.9347E-08

== TH FLOW =====================================================================
 Step    526 Time=  2.57000E+01 Dt=  5.00000E-02 [y] snes_conv_reason:   11
  newton =   1 [     534] linear =   122 [     61607] cuts =  0 [   0]
  --> max chng: dpmx=   7.8999E-07 dtmpmx=   3.7328E-08

== TH FLOW =====================================================================
 Step    527 Time=  2.57500E+01 Dt=  5.00000E-02 [y] snes_conv_reason:   11
  newton =   1 [     535] linear =   122 [     61729] cuts =  0 [   0]
  --> max chng: dpmx=   7.3842E-07 dtmpmx=   3.5390E-08

== TH FLOW =====================================================================
 Step    528 Time=  2.58000E+01 Dt=  5.00000E-02 [y] snes_conv_reason:   11
  newton =   1 [     536] linear =   119 [     61848] cuts =  0 [   0]
  --> max chng: dpmx=   6.8941E-07 dtmpmx=   3.3488E-08

== TH FLOW =====================================================================
 Step    529 Time=  2.58500E+01 Dt=  5.00000E-02 [y] snes_conv_reason:   11
  newton =   1 [     537] linear =   120 [     61968] cuts =  0 [   0]
  --> max chng: dpmx=   6.4273E-07 dtmpmx=   3.1652E-08

== TH FLOW =====================================================================
 Step    530 Time=  2.59000E+01 Dt=  5.00000E-02 [y] snes_conv_reason:   11
  newton =   1 [     538] linear =   122 [     62090] cuts =  0 [   0]
  --> max chng: dpmx=   5.9861E-07 dtmpmx=   2.9896E-08

== TH FLOW =====================================================================
 Step    531 Time=  2.59500E+01 Dt=  5.00000E-02 [y] snes_conv_reason:   11
  newton =   1 [     539] linear =   123 [     62213] cuts =  0 [   0]
  --> max chng: dpmx=   5.5681E-07 dtmpmx=   2.8237E-08

== TH FLOW =====================================================================
 Step    532 Time=  2.60000E+01 Dt=  5.00000E-02 [y] snes_conv_reason:   11
  newton =   1 [     540] linear =   122 [     62335] cuts =  0 [   0]
  --> max chng: dpmx=   5.1688E-07 dtmpmx=   2.6634E-08

== TH FLOW =====================================================================
 Step    533 Time=  2.60500E+01 Dt=  5.00000E-02 [y] snes_conv_reason:   11
  newton =   1 [     541] linear =   125 [     62460] cuts =  0 [   0]
  --> max chng: dpmx=   4.7951E-07 dtmpmx=   2.5046E-08

== TH FLOW =====================================================================
 Step    534 Time=  2.61000E+01 Dt=  5.00000E-02 [y] snes_conv_reason:   11
  newton =   1 [     542] linear =   126 [     62586] cuts =  0 [   0]
  --> max chng: dpmx=   4.4401E-07 dtmpmx=   2.3550E-08

== TH FLOW =====================================================================
 Step    535 Time=  2.61500E+01 Dt=  5.00000E-02 [y] snes_conv_reason:   11
  newton =   1 [     543] linear =   127 [     62713] cuts =  0 [   0]
  --> max chng: dpmx=   4.1060E-07 dtmpmx=   2.2158E-08

== TH FLOW =====================================================================
 Step    536 Time=  2.62000E+01 Dt=  5.00000E-02 [y] snes_conv_reason:   11
  newton =   1 [     544] linear =   126 [     62839] cuts =  0 [   0]
  --> max chng: dpmx=   3.7893E-07 dtmpmx=   2.0761E-08

== TH FLOW =====================================================================
 Step    537 Time=  2.62500E+01 Dt=  5.00000E-02 [y] snes_conv_reason:   11
  newton =   1 [     545] linear =   125 [     62964] cuts =  0 [   0]
  --> max chng: dpmx=   3.4913E-07 dtmpmx=   1.9458E-08

== TH FLOW =====================================================================
 Step    538 Time=  2.63000E+01 Dt=  5.00000E-02 [y] snes_conv_reason:   11
  newton =   1 [     546] linear =   123 [     63087] cuts =  0 [   0]
  --> max chng: dpmx=   3.2119E-07 dtmpmx=   1.8205E-08

== TH FLOW =====================================================================
 Step    539 Time=  2.63500E+01 Dt=  5.00000E-02 [y] snes_conv_reason:   11
  newton =   1 [     547] linear =   124 [     63211] cuts =  0 [   0]
  --> max chng: dpmx=   2.9488E-07 dtmpmx=   1.7025E-08

== TH FLOW =====================================================================
 Step    540 Time=  2.64000E+01 Dt=  5.00000E-02 [y] snes_conv_reason:   11
  newton =   1 [     548] linear =   123 [     63334] cuts =  0 [   0]
  --> max chng: dpmx=   2.7020E-07 dtmpmx=   1.5876E-08

== TH FLOW =====================================================================
 Step    541 Time=  2.64500E+01 Dt=  5.00000E-02 [y] snes_conv_reason:   11
  newton =   1 [     549] linear =   122 [     63456] cuts =  0 [   0]
  --> max chng: dpmx=   2.4727E-07 dtmpmx=   1.4797E-08

== TH FLOW =====================================================================
 Step    542 Time=  2.65000E+01 Dt=  5.00000E-02 [y] snes_conv_reason:   11
  newton =   1 [     550] linear =   123 [     63579] cuts =  0 [   0]
  --> max chng: dpmx=   2.2561E-07 dtmpmx=   1.3787E-08

== TH FLOW =====================================================================
 Step    543 Time=  2.65500E+01 Dt=  5.00000E-02 [y] snes_conv_reason:   11
  newton =   1 [     551] linear =   118 [     63697] cuts =  0 [   0]
  --> max chng: dpmx=   2.0536E-07 dtmpmx=   1.2763E-08

== TH FLOW =====================================================================
 Step    544 Time=  2.66000E+01 Dt=  5.00000E-02 [y] snes_conv_reason:   11
  newton =   1 [     552] linear =   123 [     63820] cuts =  0 [   0]
  --> max chng: dpmx=   1.8638E-07 dtmpmx=   1.1844E-08

== TH FLOW =====================================================================
 Step    545 Time=  2.66500E+01 Dt=  5.00000E-02 [y] snes_conv_reason:   11
  newton =   1 [     553] linear =   124 [     63944] cuts =  0 [   0]
  --> max chng: dpmx=   1.6880E-07 dtmpmx=   1.0963E-08

== TH FLOW =====================================================================
 Step    546 Time=  2.67000E+01 Dt=  5.00000E-02 [y] snes_conv_reason:   11
  newton =   1 [     554] linear =   128 [     64072] cuts =  0 [   0]
  --> max chng: dpmx=   1.5250E-07 dtmpmx=   1.0149E-08

== TH FLOW =====================================================================
 Step    547 Time=  2.67500E+01 Dt=  5.00000E-02 [y] snes_conv_reason:   11
  newton =   1 [     555] linear =   124 [     64196] cuts =  0 [   0]
  --> max chng: dpmx=   1.3725E-07 dtmpmx=   9.3218E-09

== TH FLOW =====================================================================
 Step    548 Time=  2.68000E+01 Dt=  5.00000E-02 [y] snes_conv_reason:   11
  newton =   1 [     556] linear =   123 [     64319] cuts =  0 [   0]
  --> max chng: dpmx=   1.2317E-07 dtmpmx=   8.6105E-09

== TH FLOW =====================================================================
 Step    549 Time=  2.68500E+01 Dt=  5.00000E-02 [y] snes_conv_reason:   11
  newton =   1 [     557] linear =   120 [     64439] cuts =  0 [   0]
  --> max chng: dpmx=   1.1025E-07 dtmpmx=   7.8547E-09

== TH FLOW =====================================================================
 Step    550 Time=  2.69000E+01 Dt=  5.00000E-02 [y] snes_conv_reason:   11
  newton =   1 [     558] linear =   123 [     64562] cuts =  0 [   0]
  --> max chng: dpmx=   9.8255E-08 dtmpmx=   7.2229E-09

== TH FLOW =====================================================================
 Step    551 Time=  2.69500E+01 Dt=  5.00000E-02 [y] snes_conv_reason:   11
  newton =   1 [     559] linear =   120 [     64682] cuts =  0 [   0]
  --> max chng: dpmx=   8.7195E-08 dtmpmx=   6.5624E-09

== TH FLOW =====================================================================
 Step    552 Time=  2.70000E+01 Dt=  5.00000E-02 [y] snes_conv_reason:   11
  newton =   1 [     560] linear =   123 [     64805] cuts =  0 [   0]
  --> max chng: dpmx=   7.7183E-08 dtmpmx=   5.9835E-09

== TH FLOW =====================================================================
 Step    553 Time=  2.70500E+01 Dt=  5.00000E-02 [y] snes_conv_reason:   11
  newton =   1 [     561] linear =   122 [     64927] cuts =  0 [   0]
  --> max chng: dpmx=   6.7870E-08 dtmpmx=   5.3949E-09

== TH FLOW =====================================================================
 Step    554 Time=  2.71000E+01 Dt=  5.00000E-02 [y] snes_conv_reason:   11
  newton =   1 [     562] linear =   122 [     65049] cuts =  0 [   0]
  --> max chng: dpmx=   5.9372E-08 dtmpmx=   4.8912E-09

== TH FLOW =====================================================================
 Step    555 Time=  2.71500E+01 Dt=  5.00000E-02 [y] snes_conv_reason:   11
  newton =   1 [     563] linear =   123 [     65172] cuts =  0 [   0]
  --> max chng: dpmx=   5.1688E-08 dtmpmx=   4.4284E-09

== TH FLOW =====================================================================
 Step    556 Time=  2.72000E+01 Dt=  5.00000E-02 [y] snes_conv_reason:   11
  newton =   1 [     564] linear =   122 [     65294] cuts =  0 [   0]
  --> max chng: dpmx=   4.8894E-08 dtmpmx=   3.9356E-09

== TH FLOW =====================================================================
 Step    557 Time=  2.72500E+01 Dt=  5.00000E-02 [y] snes_conv_reason:   11
  newton =   1 [     565] linear =   120 [     65414] cuts =  0 [   0]
  --> max chng: dpmx=   5.2503E-08 dtmpmx=   3.5226E-09

== TH FLOW =====================================================================
 Step    558 Time=  2.73000E+01 Dt=  5.00000E-02 [y] snes_conv_reason:   11
  newton =   1 [     566] linear =   120 [     65534] cuts =  0 [   0]
  --> max chng: dpmx=   5.5763E-08 dtmpmx=   3.0902E-09

== TH FLOW =====================================================================
 Step    559 Time=  2.73500E+01 Dt=  5.00000E-02 [y] snes_conv_reason:   11
  newton =   1 [     567] linear =   120 [     65654] cuts =  0 [   0]
  --> max chng: dpmx=   5.8790E-08 dtmpmx=   2.7170E-09

== TH FLOW =====================================================================
 Step    560 Time=  2.74000E+01 Dt=  5.00000E-02 [y] snes_conv_reason:   11
  newton =   1 [     568] linear =   121 [     65775] cuts =  0 [   0]
  --> max chng: dpmx=   6.1584E-08 dtmpmx=   2.3860E-09

== TH FLOW =====================================================================
 Step    561 Time=  2.74500E+01 Dt=  5.00000E-02 [y] snes_conv_reason:   11
  newton =   1 [     569] linear =   122 [     65897] cuts =  0 [   0]
  --> max chng: dpmx=   6.4028E-08 dtmpmx=   2.0578E-09

== TH FLOW =====================================================================
 Step    562 Time=  2.75000E+01 Dt=  5.00000E-02 [y] snes_conv_reason:   11
  newton =   1 [     570] linear =   122 [     66019] cuts =  0 [   0]
  --> max chng: dpmx=   6.6240E-08 dtmpmx=   1.7396E-09

 Wall Clock Time:  2.5589E+02 [sec]   4.2648E+00 [min]   7.1080E-02 [hr]
