
===================
  PFLOTRAN v3.0.1
===================

 Extent of Gridded Domain
  X: 2.5000000000000000 - 97.500000000000000
  Y: 2.5000000000000000 - 1277.5000000000000
  Z: 2.5000000000000000 - 2.5000000000000000


=+=+=+=+=+=+=+=+=+=+=+=+=+=+=+=+=+=+=+=+=+=+=+=+=+=+=+=+=+=+=+=+=+=+=+=+=+=+=+=+

  Initial Condition

--------------------------------------------------------------------------------
          Flow Condition:   initial
                  Region:   all
--------------------------------------------------------------------------------

  Flow Condition: initial
    Synchronize time with update: no
    Time units: yr
    Length units: m
      Datum:
        Dataset: Unnamed Ascii Dataset
          Type: dataset_ascii_type
          Transient: no
          Array Rank:  3

    Sub Condition: pressure
      Type: hydrostatic
      Gradient:
        Dataset: Unnamed Ascii Dataset
          Type: dataset_ascii_type
          Transient: no
          Array Rank:  3
      Data:
        Dataset: Unnamed Ascii Dataset
          Type: dataset_ascii_type
          Transient: no
          Array Rank:  1

    Sub Condition: temperature
      Type: dirichlet
      Gradient:
      Data:
        Dataset: Unnamed Ascii Dataset
          Type: dataset_ascii_type
          Transient: no
          Array Rank:  1

--------------------------------------------------------------------------------

=+=+=+=+=+=+=+=+=+=+=+=+=+=+=+=+=+=+=+=+=+=+=+=+=+=+=+=+=+=+=+=+=+=+=+=+=+=+=+=+

  Boundary Condition

--------------------------------------------------------------------------------
          Flow Condition:   initial
                  Region:   north
--------------------------------------------------------------------------------

  Flow Condition: initial
    Synchronize time with update: no
    Time units: yr
    Length units: m
      Datum:
        Dataset: Unnamed Ascii Dataset
          Type: dataset_ascii_type
          Transient: no
          Array Rank:  3

    Sub Condition: pressure
      Type: hydrostatic
      Gradient:
        Dataset: Unnamed Ascii Dataset
          Type: dataset_ascii_type
          Transient: no
          Array Rank:  3
      Data:
        Dataset: Unnamed Ascii Dataset
          Type: dataset_ascii_type
          Transient: no
          Array Rank:  1

    Sub Condition: temperature
      Type: dirichlet
      Gradient:
      Data:
        Dataset: Unnamed Ascii Dataset
          Type: dataset_ascii_type
          Transient: no
          Array Rank:  1

--------------------------------------------------------------------------------

=+=+=+=+=+=+=+=+=+=+=+=+=+=+=+=+=+=+=+=+=+=+=+=+=+=+=+=+=+=+=+=+=+=+=+=+=+=+=+=+

  Boundary Condition

--------------------------------------------------------------------------------
          Flow Condition:   initial
                  Region:   south
--------------------------------------------------------------------------------

  Flow Condition: initial
    Synchronize time with update: no
    Time units: yr
    Length units: m
      Datum:
        Dataset: Unnamed Ascii Dataset
          Type: dataset_ascii_type
          Transient: no
          Array Rank:  3

    Sub Condition: pressure
      Type: hydrostatic
      Gradient:
        Dataset: Unnamed Ascii Dataset
          Type: dataset_ascii_type
          Transient: no
          Array Rank:  3
      Data:
        Dataset: Unnamed Ascii Dataset
          Type: dataset_ascii_type
          Transient: no
          Array Rank:  1

    Sub Condition: temperature
      Type: dirichlet
      Gradient:
      Data:
        Dataset: Unnamed Ascii Dataset
          Type: dataset_ascii_type
          Transient: no
          Array Rank:  1

--------------------------------------------------------------------------------

=+=+=+=+=+=+=+=+=+=+=+=+=+=+=+=+=+=+=+=+=+=+=+=+=+=+=+=+=+=+=+=+=+=+=+=+=+=+=+=+

  Source Sink

--------------------------------------------------------------------------------
          Flow Condition:   injection
                  Region:   heatpump_inject0
--------------------------------------------------------------------------------

  Flow Condition: injection
    Synchronize time with update: no
    Time units: yr
    Length units: m
      Datum:

    Sub Condition: rate
      Type: scaled volumetric rate
      Gradient:
      Data:
        Dataset: Unnamed Ascii Dataset
          Type: dataset_ascii_type
          Is transient?: yes
          Number of times:      3
          Is cyclic?: no
          Buffer:
            Rank:  2
            Dims:    1   3
            Buffer Slice Size:   0
          Array Rank:  1

    Sub Condition: temperature
      Type: dirichlet
      Gradient:
      Data:
        Dataset: Unnamed Ascii Dataset
          Type: dataset_ascii_type
          Transient: no
          Array Rank:  1

--------------------------------------------------------------------------------

 Requested processors =    32

FLOW Time Stepper
                 acceleration: on
       acceleration threshold: 5
       number of ramp entries: 5
                ramp entry #1: 2.0000
                ramp entry #2: 2.0000
                ramp entry #3: 2.0000
                ramp entry #4: 2.0000
                ramp entry #5: 2.0000
                ramp entry #6: 1.8000
                ramp entry #7: 1.6000
                ramp entry #8: 1.4000
                ramp entry #9: 1.2000
               ramp entry #10: 1.0000
               ramp entry #11: 1.0000
               ramp entry #12: 1.0000
               ramp entry #13: 1.0000
      maximum number of steps: 999999
constant time steps threshold: 5
       maximum number of cuts: 16
             reduction factor: 5.000000E-01
        maximum growth factor: 2.000000E+00

FLOW Newton Solver
                         atol: 1.000000E-50
                         rtol: 1.000000E-03
                         stol: 1.000000E-08
                         dtol: 1.000000E+04
                      maxnorm: 1.000000E+20
                    inftolres: -9.990000E+02
                    inftolupd: 1.000000E+00
                 inftolrelupd: -9.990000E+02
                 inftolsclres: -9.990000E+02
                     max iter: 50
                     min iter: 1
                         maxf: 10000
                  matrix type: baij
         precond. matrix type: baij
               inexact newton: off
            print convergence: on
   print detailed convergence: off
          check infinity norm: on

FLOW Linear Solver
                       solver: bcgs
               preconditioner: bjacobi
                         atol: 1.000000E-50
                         rtol: 1.000000E-05
                         dtol: 1.000000E+04
            maximum iteration: 10000

== TH FLOW =====================================================================
 Step      1 Time=  1.00000E-05 Dt=  1.00000E-05 [y] snes_conv_reason:   11
  newton =   1 [       1] linear =   119 [       119] cuts =  0 [   0]
  --> max chng: dpmx=   4.8122E-02 dtmpmx=   3.5021E-09

== TH FLOW =====================================================================
 Step      2 Time=  3.00000E-05 Dt=  2.00000E-05 [y] snes_conv_reason:   11
  newton =   1 [       2] linear =   125 [       244] cuts =  0 [   0]
  --> max chng: dpmx=   2.2022E-02 dtmpmx=   6.9113E-09

== TH FLOW =====================================================================
 Step      3 Time=  7.00000E-05 Dt=  4.00000E-05 [y] snes_conv_reason:   11
  newton =   1 [       3] linear =   114 [       358] cuts =  0 [   0]
  --> max chng: dpmx=   5.4759E-03 dtmpmx=   1.3774E-08

== TH FLOW =====================================================================
 Step      4 Time=  1.50000E-04 Dt=  8.00000E-05 [y] snes_conv_reason:   11
  newton =   1 [       4] linear =   119 [       477] cuts =  0 [   0]
  --> max chng: dpmx=   7.2177E-04 dtmpmx=   2.7536E-08

== TH FLOW =====================================================================
 Step      5 Time=  3.10000E-04 Dt=  1.60000E-04 [y] snes_conv_reason:   11
  newton =   1 [       5] linear =   122 [       599] cuts =  0 [   0]
  --> max chng: dpmx=   4.9071E-05 dtmpmx=   5.5071E-08

== TH FLOW =====================================================================
 Step      6 Time=  6.30000E-04 Dt=  3.20000E-04 [y] snes_conv_reason:   11
  newton =   1 [       6] linear =   135 [       734] cuts =  0 [   0]
  --> max chng: dpmx=   1.5282E-06 dtmpmx=   1.1014E-07

== TH FLOW =====================================================================
 Step      7 Time=  1.27000E-03 Dt=  6.40000E-04 [y] snes_conv_reason:   11
  newton =   1 [       7] linear =   126 [       860] cuts =  0 [   0]
  --> max chng: dpmx=   7.0466E-07 dtmpmx=   2.2028E-07

== TH FLOW =====================================================================
 Step      8 Time=  2.55000E-03 Dt=  1.28000E-03 [y] snes_conv_reason:   11
  newton =   1 [       8] linear =   125 [       985] cuts =  0 [   0]
  --> max chng: dpmx=   1.4345E-06 dtmpmx=   4.4057E-07

== TH FLOW =====================================================================
 Step      9 Time=  5.11000E-03 Dt=  2.56000E-03 [y] snes_conv_reason:   11
  newton =   1 [       9] linear =   116 [      1101] cuts =  0 [   0]
  --> max chng: dpmx=   2.9574E-06 dtmpmx=   8.8114E-07

== TH FLOW =====================================================================
 Step     10 Time=  1.02300E-02 Dt=  5.12000E-03 [y] snes_conv_reason:   11
  newton =   1 [      10] linear =   131 [      1232] cuts =  0 [   0]
  --> max chng: dpmx=   6.2628E-06 dtmpmx=   1.7623E-06

== TH FLOW =====================================================================
 Step     11 Time=  2.04700E-02 Dt=  1.02400E-02 [y] snes_conv_reason:   11
  newton =   1 [      11] linear =   126 [      1358] cuts =  0 [   0]
  --> max chng: dpmx=   1.3976E-05 dtmpmx=   3.5246E-06

== TH FLOW =====================================================================
 Step     12 Time=  4.09500E-02 Dt=  2.04800E-02 [y] snes_conv_reason:   11
  newton =   1 [      12] linear =   115 [      1473] cuts =  0 [   0]
  --> max chng: dpmx=   3.3631E-05 dtmpmx=   7.0491E-06

== TH FLOW =====================================================================
 Step     13 Time=  8.19100E-02 Dt=  4.09600E-02 [y] snes_conv_reason:   11
  newton =   1 [      13] linear =   110 [      1583] cuts =  0 [   0]
  --> max chng: dpmx=   8.9734E-05 dtmpmx=   1.4098E-05

== TH FLOW =====================================================================
 Step     14 Time=  1.00000E-01 Dt=  1.80900E-02 [y] snes_conv_reason:   11
  newton =   1 [      14] linear =   126 [      1709] cuts =  0 [   0]
  --> max chng: dpmx=   4.4027E-05 dtmpmx=   6.2265E-06

== TH FLOW =====================================================================
 Step     15 Time=  1.50000E-01 Dt=  5.00000E-02 [y] snes_conv_reason:   11
  newton =   1 [      15] linear =   126 [      1835] cuts =  0 [   0]
  --> max chng: dpmx=   1.5472E-04 dtmpmx=   1.7210E-05

== TH FLOW =====================================================================
 Step     16 Time=  2.00000E-01 Dt=  5.00000E-02 [y] snes_conv_reason:   11
  newton =   1 [      16] linear =   128 [      1963] cuts =  0 [   0]
  --> max chng: dpmx=   1.8761E-04 dtmpmx=   1.7210E-05

== TH FLOW =====================================================================
 Step     17 Time=  2.50000E-01 Dt=  5.00000E-02 [y] snes_conv_reason:   11
  newton =   3 [      19] linear =   399 [      2362] cuts =  0 [   0]
  --> max chng: dpmx=   6.4583E+02 dtmpmx=   3.4743E+00

== TH FLOW =====================================================================
 Step     18 Time=  3.00000E-01 Dt=  5.00000E-02 [y] snes_conv_reason:   11
  newton =   2 [      21] linear =   265 [      2627] cuts =  0 [   0]
  --> max chng: dpmx=   4.7938E+00 dtmpmx=   1.3979E+00

== TH FLOW =====================================================================
 Step     19 Time=  3.50000E-01 Dt=  5.00000E-02 [y] snes_conv_reason:   11
  newton =   2 [      23] linear =   272 [      2899] cuts =  0 [   0]
  --> max chng: dpmx=   2.6507E+00 dtmpmx=   9.6257E-01

== TH FLOW =====================================================================
 Step     20 Time=  4.00000E-01 Dt=  5.00000E-02 [y] snes_conv_reason:   11
  newton =   2 [      25] linear =   266 [      3165] cuts =  0 [   0]
  --> max chng: dpmx=   2.4497E+00 dtmpmx=   7.6348E-01

== TH FLOW =====================================================================
 Step     21 Time=  4.50000E-01 Dt=  5.00000E-02 [y] snes_conv_reason:   11
  newton =   2 [      27] linear =   276 [      3441] cuts =  0 [   0]
  --> max chng: dpmx=   2.3102E+00 dtmpmx=   6.4161E-01

== TH FLOW =====================================================================
 Step     22 Time=  5.00000E-01 Dt=  5.00000E-02 [y] snes_conv_reason:    3
  newton =   1 [      28] linear =   132 [      3573] cuts =  0 [   0]
  --> max chng: dpmx=   2.2112E+00 dtmpmx=   5.6496E-01

== TH FLOW =====================================================================
 Step     23 Time=  5.50000E-01 Dt=  5.00000E-02 [y] snes_conv_reason:    3
  newton =   1 [      29] linear =   132 [      3705] cuts =  0 [   0]
  --> max chng: dpmx=   2.1278E+00 dtmpmx=   5.1574E-01

== TH FLOW =====================================================================
 Step     24 Time=  6.00000E-01 Dt=  5.00000E-02 [y] snes_conv_reason:    3
  newton =   1 [      30] linear =   131 [      3836] cuts =  0 [   0]
  --> max chng: dpmx=   2.0641E+00 dtmpmx=   4.7225E-01

== TH FLOW =====================================================================
 Step     25 Time=  6.50000E-01 Dt=  5.00000E-02 [y] snes_conv_reason:    3
  newton =   1 [      31] linear =   137 [      3973] cuts =  0 [   0]
  --> max chng: dpmx=   2.0119E+00 dtmpmx=   4.3352E-01

== TH FLOW =====================================================================
 Step     26 Time=  7.00000E-01 Dt=  5.00000E-02 [y] snes_conv_reason:    3
  newton =   1 [      32] linear =   137 [      4110] cuts =  0 [   0]
  --> max chng: dpmx=   1.9681E+00 dtmpmx=   4.0771E-01

== TH FLOW =====================================================================
 Step     27 Time=  7.50000E-01 Dt=  5.00000E-02 [y] snes_conv_reason:    3
  newton =   1 [      33] linear =   132 [      4242] cuts =  0 [   0]
  --> max chng: dpmx=   1.9290E+00 dtmpmx=   3.8532E-01

== TH FLOW =====================================================================
 Step     28 Time=  8.00000E-01 Dt=  5.00000E-02 [y] snes_conv_reason:    3
  newton =   1 [      34] linear =   137 [      4379] cuts =  0 [   0]
  --> max chng: dpmx=   1.8964E+00 dtmpmx=   3.6302E-01

== TH FLOW =====================================================================
 Step     29 Time=  8.50000E-01 Dt=  5.00000E-02 [y] snes_conv_reason:    3
  newton =   1 [      35] linear =   132 [      4511] cuts =  0 [   0]
  --> max chng: dpmx=   1.8662E+00 dtmpmx=   3.4483E-01

== TH FLOW =====================================================================
 Step     30 Time=  9.00000E-01 Dt=  5.00000E-02 [y] snes_conv_reason:    3
  newton =   1 [      36] linear =   131 [      4642] cuts =  0 [   0]
  --> max chng: dpmx=   1.8392E+00 dtmpmx=   3.3093E-01

== TH FLOW =====================================================================
 Step     31 Time=  9.50000E-01 Dt=  5.00000E-02 [y] snes_conv_reason:    3
  newton =   1 [      37] linear =   137 [      4779] cuts =  0 [   0]
  --> max chng: dpmx=   1.8157E+00 dtmpmx=   3.1621E-01

== TH FLOW =====================================================================
 Step     32 Time=  1.00000E+00 Dt=  5.00000E-02 [y] snes_conv_reason:    3
  newton =   1 [      38] linear =   138 [      4917] cuts =  0 [   0]
  --> max chng: dpmx=   1.7930E+00 dtmpmx=   3.0255E-01

== TH FLOW =====================================================================
 Step     33 Time=  1.05000E+00 Dt=  5.00000E-02 [y] snes_conv_reason:    3
  newton =   1 [      39] linear =   139 [      5056] cuts =  0 [   0]
  --> max chng: dpmx=   1.7723E+00 dtmpmx=   2.9293E-01

== TH FLOW =====================================================================
 Step     34 Time=  1.10000E+00 Dt=  5.00000E-02 [y] snes_conv_reason:    3
  newton =   1 [      40] linear =   138 [      5194] cuts =  0 [   0]
  --> max chng: dpmx=   1.7533E+00 dtmpmx=   2.8236E-01

== TH FLOW =====================================================================
 Step     35 Time=  1.15000E+00 Dt=  5.00000E-02 [y] snes_conv_reason:    3
  newton =   1 [      41] linear =   133 [      5327] cuts =  0 [   0]
  --> max chng: dpmx=   1.7346E+00 dtmpmx=   2.7161E-01

== TH FLOW =====================================================================
 Step     36 Time=  1.20000E+00 Dt=  5.00000E-02 [y] snes_conv_reason:    3
  newton =   1 [      42] linear =   132 [      5459] cuts =  0 [   0]
  --> max chng: dpmx=   1.7182E+00 dtmpmx=   2.6448E-01

== TH FLOW =====================================================================
 Step     37 Time=  1.25000E+00 Dt=  5.00000E-02 [y] snes_conv_reason:    3
  newton =   1 [      43] linear =   136 [      5595] cuts =  0 [   0]
  --> max chng: dpmx=   1.7026E+00 dtmpmx=   2.5645E-01

== TH FLOW =====================================================================
 Step     38 Time=  1.30000E+00 Dt=  5.00000E-02 [y] snes_conv_reason:    3
  newton =   1 [      44] linear =   126 [      5721] cuts =  0 [   0]
  --> max chng: dpmx=   1.6867E+00 dtmpmx=   2.4779E-01

== TH FLOW =====================================================================
 Step     39 Time=  1.35000E+00 Dt=  5.00000E-02 [y] snes_conv_reason:    3
  newton =   1 [      45] linear =   137 [      5858] cuts =  0 [   0]
  --> max chng: dpmx=   1.6718E+00 dtmpmx=   2.4215E-01

== TH FLOW =====================================================================
 Step     40 Time=  1.40000E+00 Dt=  5.00000E-02 [y] snes_conv_reason:    3
  newton =   1 [      46] linear =   137 [      5995] cuts =  0 [   0]
  --> max chng: dpmx=   1.6592E+00 dtmpmx=   2.3579E-01

== TH FLOW =====================================================================
 Step     41 Time=  1.45000E+00 Dt=  5.00000E-02 [y] snes_conv_reason:    3
  newton =   1 [      47] linear =   137 [      6132] cuts =  0 [   0]
  --> max chng: dpmx=   1.6461E+00 dtmpmx=   2.2884E-01

== TH FLOW =====================================================================
 Step     42 Time=  1.50000E+00 Dt=  5.00000E-02 [y] snes_conv_reason:    3
  newton =   1 [      48] linear =   112 [      6244] cuts =  0 [   0]
  --> max chng: dpmx=   1.6347E+00 dtmpmx=   2.2402E-01

== TH FLOW =====================================================================
 Step     43 Time=  1.55000E+00 Dt=  5.00000E-02 [y] snes_conv_reason:    3
  newton =   1 [      49] linear =   128 [      6372] cuts =  0 [   0]
  --> max chng: dpmx=   1.6224E+00 dtmpmx=   2.1884E-01

== TH FLOW =====================================================================
 Step     44 Time=  1.60000E+00 Dt=  5.00000E-02 [y] snes_conv_reason:    3
  newton =   1 [      50] linear =   135 [      6507] cuts =  0 [   0]
  --> max chng: dpmx=   1.6106E+00 dtmpmx=   2.1311E-01

== TH FLOW =====================================================================
 Step     45 Time=  1.65000E+00 Dt=  5.00000E-02 [y] snes_conv_reason:    3
  newton =   1 [      51] linear =   136 [      6643] cuts =  0 [   0]
  --> max chng: dpmx=   1.5993E+00 dtmpmx=   2.0892E-01

== TH FLOW =====================================================================
 Step     46 Time=  1.70000E+00 Dt=  5.00000E-02 [y] snes_conv_reason:    3
  newton =   1 [      52] linear =   133 [      6776] cuts =  0 [   0]
  --> max chng: dpmx=   1.5883E+00 dtmpmx=   2.0460E-01

== TH FLOW =====================================================================
 Step     47 Time=  1.75000E+00 Dt=  5.00000E-02 [y] snes_conv_reason:    3
  newton =   1 [      53] linear =   121 [      6897] cuts =  0 [   0]
  --> max chng: dpmx=   1.5774E+00 dtmpmx=   1.9978E-01

== TH FLOW =====================================================================
 Step     48 Time=  1.80000E+00 Dt=  5.00000E-02 [y] snes_conv_reason:    3
  newton =   1 [      54] linear =   136 [      7033] cuts =  0 [   0]
  --> max chng: dpmx=   1.5668E+00 dtmpmx=   1.9609E-01

== TH FLOW =====================================================================
 Step     49 Time=  1.85000E+00 Dt=  5.00000E-02 [y] snes_conv_reason:    3
  newton =   1 [      55] linear =   136 [      7169] cuts =  0 [   0]
  --> max chng: dpmx=   1.5574E+00 dtmpmx=   1.9243E-01

== TH FLOW =====================================================================
 Step     50 Time=  1.90000E+00 Dt=  5.00000E-02 [y] snes_conv_reason:    3
  newton =   1 [      56] linear =   134 [      7303] cuts =  0 [   0]
  --> max chng: dpmx=   1.5479E+00 dtmpmx=   1.8831E-01

== TH FLOW =====================================================================
 Step     51 Time=  1.95000E+00 Dt=  5.00000E-02 [y] snes_conv_reason:    3
  newton =   1 [      57] linear =   136 [      7439] cuts =  0 [   0]
  --> max chng: dpmx=   1.5383E+00 dtmpmx=   1.8502E-01

== TH FLOW =====================================================================
 Step     52 Time=  2.00000E+00 Dt=  5.00000E-02 [y] snes_conv_reason:    3
  newton =   1 [      58] linear =   131 [      7570] cuts =  0 [   0]
  --> max chng: dpmx=   1.5291E+00 dtmpmx=   1.8187E-01

== TH FLOW =====================================================================
 Step     53 Time=  2.05000E+00 Dt=  5.00000E-02 [y] snes_conv_reason:    3
  newton =   1 [      59] linear =   129 [      7699] cuts =  0 [   0]
  --> max chng: dpmx=   1.5194E+00 dtmpmx=   1.7830E-01

== TH FLOW =====================================================================
 Step     54 Time=  2.10000E+00 Dt=  5.00000E-02 [y] snes_conv_reason:    3
  newton =   1 [      60] linear =   135 [      7834] cuts =  0 [   0]
  --> max chng: dpmx=   1.5102E+00 dtmpmx=   1.7534E-01

== TH FLOW =====================================================================
 Step     55 Time=  2.15000E+00 Dt=  5.00000E-02 [y] snes_conv_reason:    3
  newton =   1 [      61] linear =   135 [      7969] cuts =  0 [   0]
  --> max chng: dpmx=   1.5012E+00 dtmpmx=   1.7260E-01

== TH FLOW =====================================================================
 Step     56 Time=  2.20000E+00 Dt=  5.00000E-02 [y] snes_conv_reason:    3
  newton =   1 [      62] linear =   135 [      8104] cuts =  0 [   0]
  --> max chng: dpmx=   1.4925E+00 dtmpmx=   1.6947E-01

== TH FLOW =====================================================================
 Step     57 Time=  2.25000E+00 Dt=  5.00000E-02 [y] snes_conv_reason:    3
  newton =   1 [      63] linear =   135 [      8239] cuts =  0 [   0]
  --> max chng: dpmx=   1.4845E+00 dtmpmx=   1.6679E-01

== TH FLOW =====================================================================
 Step     58 Time=  2.30000E+00 Dt=  5.00000E-02 [y] snes_conv_reason:    3
  newton =   1 [      64] linear =   133 [      8372] cuts =  0 [   0]
  --> max chng: dpmx=   1.4755E+00 dtmpmx=   1.6437E-01

== TH FLOW =====================================================================
 Step     59 Time=  2.35000E+00 Dt=  5.00000E-02 [y] snes_conv_reason:    3
  newton =   1 [      65] linear =   135 [      8507] cuts =  0 [   0]
  --> max chng: dpmx=   1.4675E+00 dtmpmx=   1.6161E-01

== TH FLOW =====================================================================
 Step     60 Time=  2.40000E+00 Dt=  5.00000E-02 [y] snes_conv_reason:    3
  newton =   1 [      66] linear =   121 [      8628] cuts =  0 [   0]
  --> max chng: dpmx=   1.4586E+00 dtmpmx=   1.5916E-01

== TH FLOW =====================================================================
 Step     61 Time=  2.45000E+00 Dt=  5.00000E-02 [y] snes_conv_reason:    3
  newton =   1 [      67] linear =   130 [      8758] cuts =  0 [   0]
  --> max chng: dpmx=   1.4512E+00 dtmpmx=   1.5702E-01

== TH FLOW =====================================================================
 Step     62 Time=  2.50000E+00 Dt=  5.00000E-02 [y] snes_conv_reason:    3
  newton =   1 [      68] linear =   133 [      8891] cuts =  0 [   0]
  --> max chng: dpmx=   1.4428E+00 dtmpmx=   1.5456E-01

== TH FLOW =====================================================================
 Step     63 Time=  2.55000E+00 Dt=  5.00000E-02 [y] snes_conv_reason:    3
  newton =   1 [      69] linear =   135 [      9026] cuts =  0 [   0]
  --> max chng: dpmx=   1.4348E+00 dtmpmx=   1.5230E-01

== TH FLOW =====================================================================
 Step     64 Time=  2.60000E+00 Dt=  5.00000E-02 [y] snes_conv_reason:    3
  newton =   1 [      70] linear =   134 [      9160] cuts =  0 [   0]
  --> max chng: dpmx=   1.4276E+00 dtmpmx=   1.5039E-01

== TH FLOW =====================================================================
 Step     65 Time=  2.65000E+00 Dt=  5.00000E-02 [y] snes_conv_reason:    3
  newton =   1 [      71] linear =   135 [      9295] cuts =  0 [   0]
  --> max chng: dpmx=   1.4189E+00 dtmpmx=   1.4818E-01

== TH FLOW =====================================================================
 Step     66 Time=  2.70000E+00 Dt=  5.00000E-02 [y] snes_conv_reason:    3
  newton =   1 [      72] linear =   128 [      9423] cuts =  0 [   0]
  --> max chng: dpmx=   1.4117E+00 dtmpmx=   1.4610E-01

== TH FLOW =====================================================================
 Step     67 Time=  2.75000E+00 Dt=  5.00000E-02 [y] snes_conv_reason:    3
  newton =   1 [      73] linear =   132 [      9555] cuts =  0 [   0]
  --> max chng: dpmx=   1.4039E+00 dtmpmx=   1.4438E-01

== TH FLOW =====================================================================
 Step     68 Time=  2.80000E+00 Dt=  5.00000E-02 [y] snes_conv_reason:    3
  newton =   1 [      74] linear =   133 [      9688] cuts =  0 [   0]
  --> max chng: dpmx=   1.3961E+00 dtmpmx=   1.4239E-01

== TH FLOW =====================================================================
 Step     69 Time=  2.85000E+00 Dt=  5.00000E-02 [y] snes_conv_reason:    3
  newton =   1 [      75] linear =   134 [      9822] cuts =  0 [   0]
  --> max chng: dpmx=   1.3891E+00 dtmpmx=   1.4045E-01

== TH FLOW =====================================================================
 Step     70 Time=  2.90000E+00 Dt=  5.00000E-02 [y] snes_conv_reason:    3
  newton =   1 [      76] linear =   134 [      9956] cuts =  0 [   0]
  --> max chng: dpmx=   1.3817E+00 dtmpmx=   1.3890E-01

== TH FLOW =====================================================================
 Step     71 Time=  2.95000E+00 Dt=  5.00000E-02 [y] snes_conv_reason:    3
  newton =   1 [      77] linear =   131 [     10087] cuts =  0 [   0]
  --> max chng: dpmx=   1.3740E+00 dtmpmx=   1.3709E-01

== TH FLOW =====================================================================
 Step     72 Time=  3.00000E+00 Dt=  5.00000E-02 [y] snes_conv_reason:    3
  newton =   1 [      78] linear =   132 [     10219] cuts =  0 [   0]
  --> max chng: dpmx=   1.3663E+00 dtmpmx=   1.3529E-01

== TH FLOW =====================================================================
 Step     73 Time=  3.05000E+00 Dt=  5.00000E-02 [y] snes_conv_reason:    3
  newton =   1 [      79] linear =   134 [     10353] cuts =  0 [   0]
  --> max chng: dpmx=   1.3594E+00 dtmpmx=   1.3387E-01

== TH FLOW =====================================================================
 Step     74 Time=  3.10000E+00 Dt=  5.00000E-02 [y] snes_conv_reason:    3
  newton =   1 [      80] linear =   133 [     10486] cuts =  0 [   0]
  --> max chng: dpmx=   1.3524E+00 dtmpmx=   1.3222E-01

== TH FLOW =====================================================================
 Step     75 Time=  3.15000E+00 Dt=  5.00000E-02 [y] snes_conv_reason:    3
  newton =   1 [      81] linear =   132 [     10618] cuts =  0 [   0]
  --> max chng: dpmx=   1.3460E+00 dtmpmx=   1.3054E-01

== TH FLOW =====================================================================
 Step     76 Time=  3.20000E+00 Dt=  5.00000E-02 [y] snes_conv_reason:    3
  newton =   1 [      82] linear =   132 [     10750] cuts =  0 [   0]
  --> max chng: dpmx=   1.3381E+00 dtmpmx=   1.2925E-01

== TH FLOW =====================================================================
 Step     77 Time=  3.25000E+00 Dt=  5.00000E-02 [y] snes_conv_reason:    3
  newton =   1 [      83] linear =   135 [     10885] cuts =  0 [   0]
  --> max chng: dpmx=   1.3302E+00 dtmpmx=   1.2774E-01

== TH FLOW =====================================================================
 Step     78 Time=  3.30000E+00 Dt=  5.00000E-02 [y] snes_conv_reason:    3
  newton =   1 [      84] linear =   133 [     11018] cuts =  0 [   0]
  --> max chng: dpmx=   1.3243E+00 dtmpmx=   1.2615E-01

== TH FLOW =====================================================================
 Step     79 Time=  3.35000E+00 Dt=  5.00000E-02 [y] snes_conv_reason:    3
  newton =   1 [      85] linear =   136 [     11154] cuts =  0 [   0]
  --> max chng: dpmx=   1.3169E+00 dtmpmx=   1.2497E-01

== TH FLOW =====================================================================
 Step     80 Time=  3.40000E+00 Dt=  5.00000E-02 [y] snes_conv_reason:    3
  newton =   1 [      86] linear =   135 [     11289] cuts =  0 [   0]
  --> max chng: dpmx=   1.3100E+00 dtmpmx=   1.2358E-01

== TH FLOW =====================================================================
 Step     81 Time=  3.45000E+00 Dt=  5.00000E-02 [y] snes_conv_reason:    3
  newton =   1 [      87] linear =   130 [     11419] cuts =  0 [   0]
  --> max chng: dpmx=   1.3034E+00 dtmpmx=   1.2209E-01

== TH FLOW =====================================================================
 Step     82 Time=  3.50000E+00 Dt=  5.00000E-02 [y] snes_conv_reason:    3
  newton =   1 [      88] linear =   133 [     11552] cuts =  0 [   0]
  --> max chng: dpmx=   1.2960E+00 dtmpmx=   1.2100E-01

== TH FLOW =====================================================================
 Step     83 Time=  3.55000E+00 Dt=  5.00000E-02 [y] snes_conv_reason:    3
  newton =   1 [      89] linear =   130 [     11682] cuts =  0 [   0]
  --> max chng: dpmx=   1.2897E+00 dtmpmx=   1.1973E-01

== TH FLOW =====================================================================
 Step     84 Time=  3.60000E+00 Dt=  5.00000E-02 [y] snes_conv_reason:    3
  newton =   1 [      90] linear =   133 [     11815] cuts =  0 [   0]
  --> max chng: dpmx=   1.2825E+00 dtmpmx=   1.1831E-01

== TH FLOW =====================================================================
 Step     85 Time=  3.65000E+00 Dt=  5.00000E-02 [y] snes_conv_reason:    3
  newton =   1 [      91] linear =   132 [     11947] cuts =  0 [   0]
  --> max chng: dpmx=   1.2761E+00 dtmpmx=   1.1731E-01

== TH FLOW =====================================================================
 Step     86 Time=  3.70000E+00 Dt=  5.00000E-02 [y] snes_conv_reason:    3
  newton =   1 [      92] linear =   132 [     12079] cuts =  0 [   0]
  --> max chng: dpmx=   1.2691E+00 dtmpmx=   1.1613E-01

== TH FLOW =====================================================================
 Step     87 Time=  3.75000E+00 Dt=  5.00000E-02 [y] snes_conv_reason:    3
  newton =   1 [      93] linear =   137 [     12216] cuts =  0 [   0]
  --> max chng: dpmx=   1.2624E+00 dtmpmx=   1.1479E-01

== TH FLOW =====================================================================
 Step     88 Time=  3.80000E+00 Dt=  5.00000E-02 [y] snes_conv_reason:    3
  newton =   1 [      94] linear =   133 [     12349] cuts =  0 [   0]
  --> max chng: dpmx=   1.2557E+00 dtmpmx=   1.1386E-01

== TH FLOW =====================================================================
 Step     89 Time=  3.85000E+00 Dt=  5.00000E-02 [y] snes_conv_reason:    3
  newton =   1 [      95] linear =   123 [     12472] cuts =  0 [   0]
  --> max chng: dpmx=   1.2490E+00 dtmpmx=   1.1277E-01

== TH FLOW =====================================================================
 Step     90 Time=  3.90000E+00 Dt=  5.00000E-02 [y] snes_conv_reason:    3
  newton =   1 [      96] linear =   129 [     12601] cuts =  0 [   0]
  --> max chng: dpmx=   1.2422E+00 dtmpmx=   1.1152E-01

== TH FLOW =====================================================================
 Step     91 Time=  3.95000E+00 Dt=  5.00000E-02 [y] snes_conv_reason:    3
  newton =   1 [      97] linear =   131 [     12732] cuts =  0 [   0]
  --> max chng: dpmx=   1.2362E+00 dtmpmx=   1.1063E-01

== TH FLOW =====================================================================
 Step     92 Time=  4.00000E+00 Dt=  5.00000E-02 [y] snes_conv_reason:    3
  newton =   1 [      98] linear =   134 [     12866] cuts =  0 [   0]
  --> max chng: dpmx=   1.2291E+00 dtmpmx=   1.0962E-01

== TH FLOW =====================================================================
 Step     93 Time=  4.05000E+00 Dt=  5.00000E-02 [y] snes_conv_reason:    3
  newton =   1 [      99] linear =   133 [     12999] cuts =  0 [   0]
  --> max chng: dpmx=   1.2222E+00 dtmpmx=   1.0846E-01

== TH FLOW =====================================================================
 Step     94 Time=  4.10000E+00 Dt=  5.00000E-02 [y] snes_conv_reason:    3
  newton =   1 [     100] linear =   134 [     13133] cuts =  0 [   0]
  --> max chng: dpmx=   1.2164E+00 dtmpmx=   1.0761E-01

== TH FLOW =====================================================================
 Step     95 Time=  4.15000E+00 Dt=  5.00000E-02 [y] snes_conv_reason:    3
  newton =   1 [     101] linear =   129 [     13262] cuts =  0 [   0]
  --> max chng: dpmx=   1.2098E+00 dtmpmx=   1.0666E-01

== TH FLOW =====================================================================
 Step     96 Time=  4.20000E+00 Dt=  5.00000E-02 [y] snes_conv_reason:    3
  newton =   1 [     102] linear =   131 [     13393] cuts =  0 [   0]
  --> max chng: dpmx=   1.2030E+00 dtmpmx=   1.0557E-01

== TH FLOW =====================================================================
 Step     97 Time=  4.25000E+00 Dt=  5.00000E-02 [y] snes_conv_reason:    3
  newton =   1 [     103] linear =   133 [     13526] cuts =  0 [   0]
  --> max chng: dpmx=   1.1968E+00 dtmpmx=   1.0476E-01

== TH FLOW =====================================================================
 Step     98 Time=  4.30000E+00 Dt=  5.00000E-02 [y] snes_conv_reason:    3
  newton =   1 [     104] linear =   136 [     13662] cuts =  0 [   0]
  --> max chng: dpmx=   1.1900E+00 dtmpmx=   1.0387E-01

== TH FLOW =====================================================================
 Step     99 Time=  4.35000E+00 Dt=  5.00000E-02 [y] snes_conv_reason:    3
  newton =   1 [     105] linear =   136 [     13798] cuts =  0 [   0]
  --> max chng: dpmx=   1.1839E+00 dtmpmx=   1.0286E-01

== TH FLOW =====================================================================
 Step    100 Time=  4.40000E+00 Dt=  5.00000E-02 [y] snes_conv_reason:    3
  newton =   1 [     106] linear =   127 [     13925] cuts =  0 [   0]
  --> max chng: dpmx=   1.1771E+00 dtmpmx=   1.0207E-01

== TH FLOW =====================================================================
 Step    101 Time=  4.45000E+00 Dt=  5.00000E-02 [y] snes_conv_reason:    3
  newton =   1 [     107] linear =   131 [     14056] cuts =  0 [   0]
  --> max chng: dpmx=   1.1718E+00 dtmpmx=   1.0124E-01

== TH FLOW =====================================================================
 Step    102 Time=  4.50000E+00 Dt=  5.00000E-02 [y] snes_conv_reason:    3
  newton =   1 [     108] linear =   132 [     14188] cuts =  0 [   0]
  --> max chng: dpmx=   1.1641E+00 dtmpmx=   1.0029E-01

== TH FLOW =====================================================================
 Step    103 Time=  4.55000E+00 Dt=  5.00000E-02 [y] snes_conv_reason:    3
  newton =   1 [     109] linear =   133 [     14321] cuts =  0 [   0]
  --> max chng: dpmx=   1.1584E+00 dtmpmx=   9.9529E-02

== TH FLOW =====================================================================
 Step    104 Time=  4.60000E+00 Dt=  5.00000E-02 [y] snes_conv_reason:    3
  newton =   1 [     110] linear =   134 [     14455] cuts =  0 [   0]
  --> max chng: dpmx=   1.1521E+00 dtmpmx=   9.8753E-02

== TH FLOW =====================================================================
 Step    105 Time=  4.65000E+00 Dt=  5.00000E-02 [y] snes_conv_reason:    3
  newton =   1 [     111] linear =   132 [     14587] cuts =  0 [   0]
  --> max chng: dpmx=   1.1455E+00 dtmpmx=   9.7860E-02

== TH FLOW =====================================================================
 Step    106 Time=  4.70000E+00 Dt=  5.00000E-02 [y] snes_conv_reason:    3
  newton =   1 [     112] linear =   127 [     14714] cuts =  0 [   0]
  --> max chng: dpmx=   1.1390E+00 dtmpmx=   9.7126E-02

== TH FLOW =====================================================================
 Step    107 Time=  4.75000E+00 Dt=  5.00000E-02 [y] snes_conv_reason:    3
  newton =   1 [     113] linear =   128 [     14842] cuts =  0 [   0]
  --> max chng: dpmx=   1.1328E+00 dtmpmx=   9.6397E-02

== TH FLOW =====================================================================
 Step    108 Time=  4.80000E+00 Dt=  5.00000E-02 [y] snes_conv_reason:    3
  newton =   1 [     114] linear =   128 [     14970] cuts =  0 [   0]
  --> max chng: dpmx=   1.1268E+00 dtmpmx=   9.5557E-02

== TH FLOW =====================================================================
 Step    109 Time=  4.85000E+00 Dt=  5.00000E-02 [y] snes_conv_reason:    3
  newton =   1 [     115] linear =   134 [     15104] cuts =  0 [   0]
  --> max chng: dpmx=   1.1211E+00 dtmpmx=   9.4848E-02

== TH FLOW =====================================================================
 Step    110 Time=  4.90000E+00 Dt=  5.00000E-02 [y] snes_conv_reason:    3
  newton =   1 [     116] linear =   128 [     15232] cuts =  0 [   0]
  --> max chng: dpmx=   1.1136E+00 dtmpmx=   9.4162E-02

== TH FLOW =====================================================================
 Step    111 Time=  4.95000E+00 Dt=  5.00000E-02 [y] snes_conv_reason:    3
  newton =   1 [     117] linear =   131 [     15363] cuts =  0 [   0]
  --> max chng: dpmx=   1.1083E+00 dtmpmx=   9.3370E-02

== TH FLOW =====================================================================
 Step    112 Time=  5.00000E+00 Dt=  5.00000E-02 [y] snes_conv_reason:    3
  newton =   1 [     118] linear =   127 [     15490] cuts =  0 [   0]
  --> max chng: dpmx=   1.1016E+00 dtmpmx=   9.2684E-02

== TH FLOW =====================================================================
 Step    113 Time=  5.05000E+00 Dt=  5.00000E-02 [y] snes_conv_reason:    3
  newton =   1 [     119] linear =   135 [     15625] cuts =  0 [   0]
  --> max chng: dpmx=   1.0957E+00 dtmpmx=   9.2038E-02

== TH FLOW =====================================================================
 Step    114 Time=  5.10000E+00 Dt=  5.00000E-02 [y] snes_conv_reason:    3
  newton =   1 [     120] linear =   133 [     15758] cuts =  0 [   0]
  --> max chng: dpmx=   1.0892E+00 dtmpmx=   9.1291E-02

== TH FLOW =====================================================================
 Step    115 Time=  5.15000E+00 Dt=  5.00000E-02 [y] snes_conv_reason:    3
  newton =   1 [     121] linear =   132 [     15890] cuts =  0 [   0]
  --> max chng: dpmx=   1.0830E+00 dtmpmx=   9.0625E-02

== TH FLOW =====================================================================
 Step    116 Time=  5.20000E+00 Dt=  5.00000E-02 [y] snes_conv_reason:    3
  newton =   1 [     122] linear =   132 [     16022] cuts =  0 [   0]
  --> max chng: dpmx=   1.0770E+00 dtmpmx=   9.0016E-02

== TH FLOW =====================================================================
 Step    117 Time=  5.25000E+00 Dt=  5.00000E-02 [y] snes_conv_reason:    3
  newton =   1 [     123] linear =   129 [     16151] cuts =  0 [   0]
  --> max chng: dpmx=   1.0709E+00 dtmpmx=   8.9310E-02

== TH FLOW =====================================================================
 Step    118 Time=  5.30000E+00 Dt=  5.00000E-02 [y] snes_conv_reason:    3
  newton =   1 [     124] linear =   135 [     16286] cuts =  0 [   0]
  --> max chng: dpmx=   1.0646E+00 dtmpmx=   8.8664E-02

== TH FLOW =====================================================================
 Step    119 Time=  5.35000E+00 Dt=  5.00000E-02 [y] snes_conv_reason:    3
  newton =   1 [     125] linear =   135 [     16421] cuts =  0 [   0]
  --> max chng: dpmx=   1.0584E+00 dtmpmx=   8.8088E-02

== TH FLOW =====================================================================
 Step    120 Time=  5.40000E+00 Dt=  5.00000E-02 [y] snes_conv_reason:    3
  newton =   1 [     126] linear =   134 [     16555] cuts =  0 [   0]
  --> max chng: dpmx=   1.0521E+00 dtmpmx=   8.7420E-02

== TH FLOW =====================================================================
 Step    121 Time=  5.45000E+00 Dt=  5.00000E-02 [y] snes_conv_reason:    3
  newton =   1 [     127] linear =   134 [     16689] cuts =  0 [   0]
  --> max chng: dpmx=   1.0464E+00 dtmpmx=   8.6793E-02

== TH FLOW =====================================================================
 Step    122 Time=  5.50000E+00 Dt=  5.00000E-02 [y] snes_conv_reason:    3
  newton =   1 [     128] linear =   133 [     16822] cuts =  0 [   0]
  --> max chng: dpmx=   1.0401E+00 dtmpmx=   8.6249E-02

== TH FLOW =====================================================================
 Step    123 Time=  5.55000E+00 Dt=  5.00000E-02 [y] snes_conv_reason:    3
  newton =   1 [     129] linear =   135 [     16957] cuts =  0 [   0]
  --> max chng: dpmx=   1.0340E+00 dtmpmx=   8.5616E-02

== TH FLOW =====================================================================
 Step    124 Time=  5.60000E+00 Dt=  5.00000E-02 [y] snes_conv_reason:    3
  newton =   1 [     130] linear =   137 [     17094] cuts =  0 [   0]
  --> max chng: dpmx=   1.0278E+00 dtmpmx=   8.5006E-02

== TH FLOW =====================================================================
 Step    125 Time=  5.65000E+00 Dt=  5.00000E-02 [y] snes_conv_reason:    3
  newton =   1 [     131] linear =   134 [     17228] cuts =  0 [   0]
  --> max chng: dpmx=   1.0216E+00 dtmpmx=   8.4491E-02

== TH FLOW =====================================================================
 Step    126 Time=  5.70000E+00 Dt=  5.00000E-02 [y] snes_conv_reason:    3
  newton =   1 [     132] linear =   129 [     17357] cuts =  0 [   0]
  --> max chng: dpmx=   1.0160E+00 dtmpmx=   8.3891E-02

== TH FLOW =====================================================================
 Step    127 Time=  5.75000E+00 Dt=  5.00000E-02 [y] snes_conv_reason:    3
  newton =   1 [     133] linear =   138 [     17495] cuts =  0 [   0]
  --> max chng: dpmx=   1.0096E+00 dtmpmx=   8.3298E-02

== TH FLOW =====================================================================
 Step    128 Time=  5.80000E+00 Dt=  5.00000E-02 [y] snes_conv_reason:    3
  newton =   1 [     134] linear =   133 [     17628] cuts =  0 [   0]
  --> max chng: dpmx=   1.0035E+00 dtmpmx=   8.2809E-02

== TH FLOW =====================================================================
 Step    129 Time=  5.85000E+00 Dt=  5.00000E-02 [y] snes_conv_reason:   11
  newton =   1 [     135] linear =   133 [     17761] cuts =  0 [   0]
  --> max chng: dpmx=   9.9731E-01 dtmpmx=   8.2239E-02

== TH FLOW =====================================================================
 Step    130 Time=  5.90000E+00 Dt=  5.00000E-02 [y] snes_conv_reason:   11
  newton =   1 [     136] linear =   131 [     17892] cuts =  0 [   0]
  --> max chng: dpmx=   9.9153E-01 dtmpmx=   8.1661E-02

== TH FLOW =====================================================================
 Step    131 Time=  5.95000E+00 Dt=  5.00000E-02 [y] snes_conv_reason:   11
  newton =   1 [     137] linear =   133 [     18025] cuts =  0 [   0]
  --> max chng: dpmx=   9.8589E-01 dtmpmx=   8.1198E-02

== TH FLOW =====================================================================
 Step    132 Time=  6.00000E+00 Dt=  5.00000E-02 [y] snes_conv_reason:   11
  newton =   1 [     138] linear =   133 [     18158] cuts =  0 [   0]
  --> max chng: dpmx=   9.7903E-01 dtmpmx=   8.0656E-02

== TH FLOW =====================================================================
 Step    133 Time=  6.05000E+00 Dt=  5.00000E-02 [y] snes_conv_reason:   11
  newton =   1 [     139] linear =   133 [     18291] cuts =  0 [   0]
  --> max chng: dpmx=   9.7341E-01 dtmpmx=   8.0093E-02

== TH FLOW =====================================================================
 Step    134 Time=  6.10000E+00 Dt=  5.00000E-02 [y] snes_conv_reason:   11
  newton =   1 [     140] linear =   124 [     18415] cuts =  0 [   0]
  --> max chng: dpmx=   9.6742E-01 dtmpmx=   7.9653E-02

== TH FLOW =====================================================================
 Step    135 Time=  6.15000E+00 Dt=  5.00000E-02 [y] snes_conv_reason:   11
  newton =   1 [     141] linear =   129 [     18544] cuts =  0 [   0]
  --> max chng: dpmx=   9.6194E-01 dtmpmx=   7.9138E-02

== TH FLOW =====================================================================
 Step    136 Time=  6.20000E+00 Dt=  5.00000E-02 [y] snes_conv_reason:   11
  newton =   1 [     142] linear =   128 [     18672] cuts =  0 [   0]
  --> max chng: dpmx=   9.5512E-01 dtmpmx=   7.8589E-02

== TH FLOW =====================================================================
 Step    137 Time=  6.25000E+00 Dt=  5.00000E-02 [y] snes_conv_reason:   11
  newton =   1 [     143] linear =   133 [     18805] cuts =  0 [   0]
  --> max chng: dpmx=   9.4894E-01 dtmpmx=   7.8170E-02

== TH FLOW =====================================================================
 Step    138 Time=  6.30000E+00 Dt=  5.00000E-02 [y] snes_conv_reason:   11
  newton =   1 [     144] linear =   134 [     18939] cuts =  0 [   0]
  --> max chng: dpmx=   9.4374E-01 dtmpmx=   7.7680E-02

== TH FLOW =====================================================================
 Step    139 Time=  6.35000E+00 Dt=  5.00000E-02 [y] snes_conv_reason:   11
  newton =   1 [     145] linear =   132 [     19071] cuts =  0 [   0]
  --> max chng: dpmx=   9.3718E-01 dtmpmx=   7.7143E-02

== TH FLOW =====================================================================
 Step    140 Time=  6.40000E+00 Dt=  5.00000E-02 [y] snes_conv_reason:   11
  newton =   1 [     146] linear =   129 [     19200] cuts =  0 [   0]
  --> max chng: dpmx=   9.3175E-01 dtmpmx=   7.6745E-02

== TH FLOW =====================================================================
 Step    141 Time=  6.45000E+00 Dt=  5.00000E-02 [y] snes_conv_reason:   11
  newton =   1 [     147] linear =   129 [     19329] cuts =  0 [   0]
  --> max chng: dpmx=   9.2539E-01 dtmpmx=   7.6278E-02

== TH FLOW =====================================================================
 Step    142 Time=  6.50000E+00 Dt=  5.00000E-02 [y] snes_conv_reason:   11
  newton =   1 [     148] linear =   133 [     19462] cuts =  0 [   0]
  --> max chng: dpmx=   9.1946E-01 dtmpmx=   7.5754E-02

== TH FLOW =====================================================================
 Step    143 Time=  6.55000E+00 Dt=  5.00000E-02 [y] snes_conv_reason:   11
  newton =   1 [     149] linear =   126 [     19588] cuts =  0 [   0]
  --> max chng: dpmx=   9.1328E-01 dtmpmx=   7.5375E-02

== TH FLOW =====================================================================
 Step    144 Time=  6.60000E+00 Dt=  5.00000E-02 [y] snes_conv_reason:   11
  newton =   1 [     150] linear =   133 [     19721] cuts =  0 [   0]
  --> max chng: dpmx=   9.0808E-01 dtmpmx=   7.4929E-02

== TH FLOW =====================================================================
 Step    145 Time=  6.65000E+00 Dt=  5.00000E-02 [y] snes_conv_reason:   11
  newton =   1 [     151] linear =   130 [     19851] cuts =  0 [   0]
  --> max chng: dpmx=   9.0158E-01 dtmpmx=   7.4420E-02

== TH FLOW =====================================================================
 Step    146 Time=  6.70000E+00 Dt=  5.00000E-02 [y] snes_conv_reason:   11
  newton =   1 [     152] linear =   128 [     19979] cuts =  0 [   0]
  --> max chng: dpmx=   8.9544E-01 dtmpmx=   7.4056E-02

== TH FLOW =====================================================================
 Step    147 Time=  6.75000E+00 Dt=  5.00000E-02 [y] snes_conv_reason:   11
  newton =   1 [     153] linear =   134 [     20113] cuts =  0 [   0]
  --> max chng: dpmx=   8.9009E-01 dtmpmx=   7.3631E-02

== TH FLOW =====================================================================
 Step    148 Time=  6.80000E+00 Dt=  5.00000E-02 [y] snes_conv_reason:   11
  newton =   1 [     154] linear =   128 [     20241] cuts =  0 [   0]
  --> max chng: dpmx=   8.8367E-01 dtmpmx=   7.3144E-02

== TH FLOW =====================================================================
 Step    149 Time=  6.85000E+00 Dt=  5.00000E-02 [y] snes_conv_reason:   11
  newton =   1 [     155] linear =   125 [     20366] cuts =  0 [   0]
  --> max chng: dpmx=   8.7780E-01 dtmpmx=   7.2786E-02

== TH FLOW =====================================================================
 Step    150 Time=  6.90000E+00 Dt=  5.00000E-02 [y] snes_conv_reason:   11
  newton =   1 [     156] linear =   128 [     20494] cuts =  0 [   0]
  --> max chng: dpmx=   8.7238E-01 dtmpmx=   7.2380E-02

== TH FLOW =====================================================================
 Step    151 Time=  6.95000E+00 Dt=  5.00000E-02 [y] snes_conv_reason:   11
  newton =   1 [     157] linear =   131 [     20625] cuts =  0 [   0]
  --> max chng: dpmx=   8.6624E-01 dtmpmx=   7.1914E-02

== TH FLOW =====================================================================
 Step    152 Time=  7.00000E+00 Dt=  5.00000E-02 [y] snes_conv_reason:   11
  newton =   1 [     158] linear =   131 [     20756] cuts =  0 [   0]
  --> max chng: dpmx=   8.6010E-01 dtmpmx=   7.1561E-02

== TH FLOW =====================================================================
 Step    153 Time=  7.05000E+00 Dt=  5.00000E-02 [y] snes_conv_reason:   11
  newton =   1 [     159] linear =   128 [     20884] cuts =  0 [   0]
  --> max chng: dpmx=   8.5389E-01 dtmpmx=   7.1173E-02

== TH FLOW =====================================================================
 Step    154 Time=  7.10000E+00 Dt=  5.00000E-02 [y] snes_conv_reason:   11
  newton =   1 [     160] linear =   129 [     21013] cuts =  0 [   0]
  --> max chng: dpmx=   8.4864E-01 dtmpmx=   7.0727E-02

== TH FLOW =====================================================================
 Step    155 Time=  7.15000E+00 Dt=  5.00000E-02 [y] snes_conv_reason:   11
  newton =   1 [     161] linear =   128 [     21141] cuts =  0 [   0]
  --> max chng: dpmx=   8.4240E-01 dtmpmx=   7.0379E-02

== TH FLOW =====================================================================
 Step    156 Time=  7.20000E+00 Dt=  5.00000E-02 [y] snes_conv_reason:   11
  newton =   1 [     162] linear =   128 [     21269] cuts =  0 [   0]
  --> max chng: dpmx=   8.3673E-01 dtmpmx=   7.0008E-02

== TH FLOW =====================================================================
 Step    157 Time=  7.25000E+00 Dt=  5.00000E-02 [y] snes_conv_reason:   11
  newton =   1 [     163] linear =   132 [     21401] cuts =  0 [   0]
  --> max chng: dpmx=   8.3091E-01 dtmpmx=   6.9581E-02

== TH FLOW =====================================================================
 Step    158 Time=  7.30000E+00 Dt=  5.00000E-02 [y] snes_conv_reason:   11
  newton =   1 [     164] linear =   130 [     21531] cuts =  0 [   0]
  --> max chng: dpmx=   8.2430E-01 dtmpmx=   6.9238E-02

== TH FLOW =====================================================================
 Step    159 Time=  7.35000E+00 Dt=  5.00000E-02 [y] snes_conv_reason:   11
  newton =   1 [     165] linear =   129 [     21660] cuts =  0 [   0]
  --> max chng: dpmx=   8.1931E-01 dtmpmx=   6.8883E-02

== TH FLOW =====================================================================
 Step    160 Time=  7.40000E+00 Dt=  5.00000E-02 [y] snes_conv_reason:   11
  newton =   1 [     166] linear =   129 [     21789] cuts =  0 [   0]
  --> max chng: dpmx=   8.1328E-01 dtmpmx=   6.8473E-02

== TH FLOW =====================================================================
 Step    161 Time=  7.45000E+00 Dt=  5.00000E-02 [y] snes_conv_reason:   11
  newton =   1 [     167] linear =   127 [     21916] cuts =  0 [   0]
  --> max chng: dpmx=   8.0712E-01 dtmpmx=   6.8136E-02

== TH FLOW =====================================================================
 Step    162 Time=  7.50000E+00 Dt=  5.00000E-02 [y] snes_conv_reason:   11
  newton =   1 [     168] linear =   131 [     22047] cuts =  0 [   0]
  --> max chng: dpmx=   8.0159E-01 dtmpmx=   6.7795E-02

== TH FLOW =====================================================================
 Step    163 Time=  7.55000E+00 Dt=  5.00000E-02 [y] snes_conv_reason:   11
  newton =   1 [     169] linear =   131 [     22178] cuts =  0 [   0]
  --> max chng: dpmx=   7.9535E-01 dtmpmx=   6.7403E-02

== TH FLOW =====================================================================
 Step    164 Time=  7.60000E+00 Dt=  5.00000E-02 [y] snes_conv_reason:   11
  newton =   1 [     170] linear =   130 [     22308] cuts =  0 [   0]
  --> max chng: dpmx=   7.8961E-01 dtmpmx=   6.7070E-02

== TH FLOW =====================================================================
 Step    165 Time=  7.65000E+00 Dt=  5.00000E-02 [y] snes_conv_reason:   11
  newton =   1 [     171] linear =   129 [     22437] cuts =  0 [   0]
  --> max chng: dpmx=   7.8490E-01 dtmpmx=   6.6743E-02

== TH FLOW =====================================================================
 Step    166 Time=  7.70000E+00 Dt=  5.00000E-02 [y] snes_conv_reason:   11
  newton =   1 [     172] linear =   133 [     22570] cuts =  0 [   0]
  --> max chng: dpmx=   7.8948E-01 dtmpmx=   6.6367E-02

== TH FLOW =====================================================================
 Step    167 Time=  7.75000E+00 Dt=  5.00000E-02 [y] snes_conv_reason:   11
  newton =   1 [     173] linear =   133 [     22703] cuts =  0 [   0]
  --> max chng: dpmx=   7.9392E-01 dtmpmx=   6.6038E-02

== TH FLOW =====================================================================
 Step    168 Time=  7.80000E+00 Dt=  5.00000E-02 [y] snes_conv_reason:   11
  newton =   1 [     174] linear =   122 [     22825] cuts =  0 [   0]
  --> max chng: dpmx=   7.9850E-01 dtmpmx=   6.5726E-02

== TH FLOW =====================================================================
 Step    169 Time=  7.85000E+00 Dt=  5.00000E-02 [y] snes_conv_reason:   11
  newton =   1 [     175] linear =   131 [     22956] cuts =  0 [   0]
  --> max chng: dpmx=   8.0292E-01 dtmpmx=   6.5364E-02

== TH FLOW =====================================================================
 Step    170 Time=  7.90000E+00 Dt=  5.00000E-02 [y] snes_conv_reason:   11
  newton =   1 [     176] linear =   128 [     23084] cuts =  0 [   0]
  --> max chng: dpmx=   8.0720E-01 dtmpmx=   6.5040E-02

== TH FLOW =====================================================================
 Step    171 Time=  7.95000E+00 Dt=  5.00000E-02 [y] snes_conv_reason:   11
  newton =   1 [     177] linear =   133 [     23217] cuts =  0 [   0]
  --> max chng: dpmx=   8.1197E-01 dtmpmx=   6.4740E-02

== TH FLOW =====================================================================
 Step    172 Time=  8.00000E+00 Dt=  5.00000E-02 [y] snes_conv_reason:   11
  newton =   1 [     178] linear =   133 [     23350] cuts =  0 [   0]
  --> max chng: dpmx=   8.1636E-01 dtmpmx=   6.4393E-02

== TH FLOW =====================================================================
 Step    173 Time=  8.05000E+00 Dt=  5.00000E-02 [y] snes_conv_reason:   11
  newton =   1 [     179] linear =   133 [     23483] cuts =  0 [   0]
  --> max chng: dpmx=   8.2088E-01 dtmpmx=   6.4072E-02

== TH FLOW =====================================================================
 Step    174 Time=  8.10000E+00 Dt=  5.00000E-02 [y] snes_conv_reason:   11
  newton =   1 [     180] linear =   132 [     23615] cuts =  0 [   0]
  --> max chng: dpmx=   8.2557E-01 dtmpmx=   6.3785E-02

== TH FLOW =====================================================================
 Step    175 Time=  8.15000E+00 Dt=  5.00000E-02 [y] snes_conv_reason:   11
  newton =   1 [     181] linear =   135 [     23750] cuts =  0 [   0]
  --> max chng: dpmx=   8.2979E-01 dtmpmx=   6.3451E-02

== TH FLOW =====================================================================
 Step    176 Time=  8.20000E+00 Dt=  5.00000E-02 [y] snes_conv_reason:   11
  newton =   1 [     182] linear =   132 [     23882] cuts =  0 [   0]
  --> max chng: dpmx=   8.3453E-01 dtmpmx=   6.3135E-02

== TH FLOW =====================================================================
 Step    177 Time=  8.25000E+00 Dt=  5.00000E-02 [y] snes_conv_reason:   11
  newton =   1 [     183] linear =   133 [     24015] cuts =  0 [   0]
  --> max chng: dpmx=   8.3904E-01 dtmpmx=   6.2859E-02

== TH FLOW =====================================================================
 Step    178 Time=  8.30000E+00 Dt=  5.00000E-02 [y] snes_conv_reason:   11
  newton =   1 [     184] linear =   135 [     24150] cuts =  0 [   0]
  --> max chng: dpmx=   8.4347E-01 dtmpmx=   6.2538E-02

== TH FLOW =====================================================================
 Step    179 Time=  8.35000E+00 Dt=  5.00000E-02 [y] snes_conv_reason:   11
  newton =   1 [     185] linear =   128 [     24278] cuts =  0 [   0]
  --> max chng: dpmx=   8.4816E-01 dtmpmx=   6.2226E-02

== TH FLOW =====================================================================
 Step    180 Time=  8.40000E+00 Dt=  5.00000E-02 [y] snes_conv_reason:   11
  newton =   1 [     186] linear =   130 [     24408] cuts =  0 [   0]
  --> max chng: dpmx=   8.5254E-01 dtmpmx=   6.1961E-02

== TH FLOW =====================================================================
 Step    181 Time=  8.45000E+00 Dt=  5.00000E-02 [y] snes_conv_reason:   11
  newton =   1 [     187] linear =   132 [     24540] cuts =  0 [   0]
  --> max chng: dpmx=   8.5718E-01 dtmpmx=   6.1652E-02

== TH FLOW =====================================================================
 Step    182 Time=  8.50000E+00 Dt=  5.00000E-02 [y] snes_conv_reason:   11
  newton =   1 [     188] linear =   127 [     24667] cuts =  0 [   0]
  --> max chng: dpmx=   8.6178E-01 dtmpmx=   6.1344E-02

== TH FLOW =====================================================================
 Step    183 Time=  8.55000E+00 Dt=  5.00000E-02 [y] snes_conv_reason:   11
  newton =   1 [     189] linear =   130 [     24797] cuts =  0 [   0]
  --> max chng: dpmx=   8.6625E-01 dtmpmx=   6.1089E-02

== TH FLOW =====================================================================
 Step    184 Time=  8.60000E+00 Dt=  5.00000E-02 [y] snes_conv_reason:   11
  newton =   1 [     190] linear =   135 [     24932] cuts =  0 [   0]
  --> max chng: dpmx=   8.7091E-01 dtmpmx=   6.0792E-02

== TH FLOW =====================================================================
 Step    185 Time=  8.65000E+00 Dt=  5.00000E-02 [y] snes_conv_reason:   11
  newton =   1 [     191] linear =   122 [     25054] cuts =  0 [   0]
  --> max chng: dpmx=   8.7540E-01 dtmpmx=   6.0487E-02

== TH FLOW =====================================================================
 Step    186 Time=  8.70000E+00 Dt=  5.00000E-02 [y] snes_conv_reason:   11
  newton =   1 [     192] linear =   135 [     25189] cuts =  0 [   0]
  --> max chng: dpmx=   8.8000E-01 dtmpmx=   6.0243E-02

== TH FLOW =====================================================================
 Step    187 Time=  8.75000E+00 Dt=  5.00000E-02 [y] snes_conv_reason:   11
  newton =   1 [     193] linear =   139 [     25328] cuts =  0 [   0]
  --> max chng: dpmx=   8.8464E-01 dtmpmx=   5.9957E-02

== TH FLOW =====================================================================
 Step    188 Time=  8.80000E+00 Dt=  5.00000E-02 [y] snes_conv_reason:   11
  newton =   1 [     194] linear =   132 [     25460] cuts =  0 [   0]
  --> max chng: dpmx=   8.8905E-01 dtmpmx=   5.9656E-02

== TH FLOW =====================================================================
 Step    189 Time=  8.85000E+00 Dt=  5.00000E-02 [y] snes_conv_reason:   11
  newton =   1 [     195] linear =   141 [     25601] cuts =  0 [   0]
  --> max chng: dpmx=   8.9384E-01 dtmpmx=   5.9421E-02

== TH FLOW =====================================================================
 Step    190 Time=  8.90000E+00 Dt=  5.00000E-02 [y] snes_conv_reason:   11
  newton =   1 [     196] linear =   137 [     25738] cuts =  0 [   0]
  --> max chng: dpmx=   8.9833E-01 dtmpmx=   5.9146E-02

== TH FLOW =====================================================================
 Step    191 Time=  8.95000E+00 Dt=  5.00000E-02 [y] snes_conv_reason:   11
  newton =   1 [     197] linear =   132 [     25870] cuts =  0 [   0]
  --> max chng: dpmx=   9.0293E-01 dtmpmx=   5.8848E-02

== TH FLOW =====================================================================
 Step    192 Time=  9.00000E+00 Dt=  5.00000E-02 [y] snes_conv_reason:   11
  newton =   1 [     198] linear =   139 [     26009] cuts =  0 [   0]
  --> max chng: dpmx=   9.0760E-01 dtmpmx=   5.8621E-02

== TH FLOW =====================================================================
 Step    193 Time=  9.05000E+00 Dt=  5.00000E-02 [y] snes_conv_reason:   11
  newton =   1 [     199] linear =   137 [     26146] cuts =  0 [   0]
  --> max chng: dpmx=   9.1202E-01 dtmpmx=   5.8357E-02

== TH FLOW =====================================================================
 Step    194 Time=  9.10000E+00 Dt=  5.00000E-02 [y] snes_conv_reason:   11
  newton =   1 [     200] linear =   133 [     26279] cuts =  0 [   0]
  --> max chng: dpmx=   9.1680E-01 dtmpmx=   5.8062E-02

== TH FLOW =====================================================================
 Step    195 Time=  9.15000E+00 Dt=  5.00000E-02 [y] snes_conv_reason:   11
  newton =   1 [     201] linear =   135 [     26414] cuts =  0 [   0]
  --> max chng: dpmx=   9.2137E-01 dtmpmx=   5.7844E-02

== TH FLOW =====================================================================
 Step    196 Time=  9.20000E+00 Dt=  5.00000E-02 [y] snes_conv_reason:   11
  newton =   1 [     202] linear =   134 [     26548] cuts =  0 [   0]
  --> max chng: dpmx=   9.2593E-01 dtmpmx=   5.7589E-02

== TH FLOW =====================================================================
 Step    197 Time=  9.25000E+00 Dt=  5.00000E-02 [y] snes_conv_reason:   11
  newton =   1 [     203] linear =   125 [     26673] cuts =  0 [   0]
  --> max chng: dpmx=   9.3072E-01 dtmpmx=   5.7298E-02

== TH FLOW =====================================================================
 Step    198 Time=  9.30000E+00 Dt=  5.00000E-02 [y] snes_conv_reason:   11
  newton =   1 [     204] linear =   132 [     26805] cuts =  0 [   0]
  --> max chng: dpmx=   9.3528E-01 dtmpmx=   5.7089E-02

== TH FLOW =====================================================================
 Step    199 Time=  9.35000E+00 Dt=  5.00000E-02 [y] snes_conv_reason:   11
  newton =   1 [     205] linear =   131 [     26936] cuts =  0 [   0]
  --> max chng: dpmx=   9.3977E-01 dtmpmx=   5.6843E-02

== TH FLOW =====================================================================
 Step    200 Time=  9.40000E+00 Dt=  5.00000E-02 [y] snes_conv_reason:   11
  newton =   1 [     206] linear =   125 [     27061] cuts =  0 [   0]
  --> max chng: dpmx=   9.4464E-01 dtmpmx=   5.6561E-02

== TH FLOW =====================================================================
 Step    201 Time=  9.45000E+00 Dt=  5.00000E-02 [y] snes_conv_reason:   11
  newton =   1 [     207] linear =   131 [     27192] cuts =  0 [   0]
  --> max chng: dpmx=   9.4891E-01 dtmpmx=   5.6353E-02

== TH FLOW =====================================================================
 Step    202 Time=  9.50000E+00 Dt=  5.00000E-02 [y] snes_conv_reason:   11
  newton =   1 [     208] linear =   132 [     27324] cuts =  0 [   0]
  --> max chng: dpmx=   9.5389E-01 dtmpmx=   5.6116E-02

== TH FLOW =====================================================================
 Step    203 Time=  9.55000E+00 Dt=  5.00000E-02 [y] snes_conv_reason:   11
  newton =   1 [     209] linear =   136 [     27460] cuts =  0 [   0]
  --> max chng: dpmx=   9.5848E-01 dtmpmx=   5.5844E-02

== TH FLOW =====================================================================
 Step    204 Time=  9.60000E+00 Dt=  5.00000E-02 [y] snes_conv_reason:   11
  newton =   1 [     210] linear =   131 [     27591] cuts =  0 [   0]
  --> max chng: dpmx=   9.6298E-01 dtmpmx=   5.5637E-02

== TH FLOW =====================================================================
 Step    205 Time=  9.65000E+00 Dt=  5.00000E-02 [y] snes_conv_reason:   11
  newton =   1 [     211] linear =   128 [     27719] cuts =  0 [   0]
  --> max chng: dpmx=   9.6768E-01 dtmpmx=   5.5408E-02

== TH FLOW =====================================================================
 Step    206 Time=  9.70000E+00 Dt=  5.00000E-02 [y] snes_conv_reason:   11
  newton =   1 [     212] linear =   133 [     27852] cuts =  0 [   0]
  --> max chng: dpmx=   9.7249E-01 dtmpmx=   5.5146E-02

== TH FLOW =====================================================================
 Step    207 Time=  9.75000E+00 Dt=  5.00000E-02 [y] snes_conv_reason:   11
  newton =   1 [     213] linear =   129 [     27981] cuts =  0 [   0]
  --> max chng: dpmx=   9.7699E-01 dtmpmx=   5.4939E-02

== TH FLOW =====================================================================
 Step    208 Time=  9.80000E+00 Dt=  5.00000E-02 [y] snes_conv_reason:   11
  newton =   1 [     214] linear =   133 [     28114] cuts =  0 [   0]
  --> max chng: dpmx=   9.8189E-01 dtmpmx=   5.4719E-02

== TH FLOW =====================================================================
 Step    209 Time=  9.85000E+00 Dt=  5.00000E-02 [y] snes_conv_reason:   11
  newton =   1 [     215] linear =   129 [     28243] cuts =  0 [   0]
  --> max chng: dpmx=   9.8645E-01 dtmpmx=   5.4465E-02

== TH FLOW =====================================================================
 Step    210 Time=  9.90000E+00 Dt=  5.00000E-02 [y] snes_conv_reason:   11
  newton =   1 [     216] linear =   128 [     28371] cuts =  0 [   0]
  --> max chng: dpmx=   9.9094E-01 dtmpmx=   5.4259E-02

== TH FLOW =====================================================================
 Step    211 Time=  9.95000E+00 Dt=  5.00000E-02 [y] snes_conv_reason:   11
  newton =   1 [     217] linear =   124 [     28495] cuts =  0 [   0]
  --> max chng: dpmx=   9.9580E-01 dtmpmx=   5.4047E-02

== TH FLOW =====================================================================
 Step    212 Time=  1.00000E+01 Dt=  5.00000E-02 [y] snes_conv_reason:    3
  newton =   1 [     218] linear =   123 [     28618] cuts =  0 [   0]
  --> max chng: dpmx=   1.0003E+00 dtmpmx=   5.3802E-02

== TH FLOW =====================================================================
 Step    213 Time=  1.00500E+01 Dt=  5.00000E-02 [y] snes_conv_reason:    3
  newton =   1 [     219] linear =   129 [     28747] cuts =  0 [   0]
  --> max chng: dpmx=   1.0051E+00 dtmpmx=   5.3597E-02

== TH FLOW =====================================================================
 Step    214 Time=  1.01000E+01 Dt=  5.00000E-02 [y] snes_conv_reason:    3
  newton =   1 [     220] linear =   135 [     28882] cuts =  0 [   0]
  --> max chng: dpmx=   1.0098E+00 dtmpmx=   5.3391E-02

== TH FLOW =====================================================================
 Step    215 Time=  1.01500E+01 Dt=  5.00000E-02 [y] snes_conv_reason:    3
  newton =   1 [     221] linear =   130 [     29012] cuts =  0 [   0]
  --> max chng: dpmx=   1.0145E+00 dtmpmx=   5.3155E-02

== TH FLOW =====================================================================
 Step    216 Time=  1.02000E+01 Dt=  5.00000E-02 [y] snes_conv_reason:    3
  newton =   1 [     222] linear =   135 [     29147] cuts =  0 [   0]
  --> max chng: dpmx=   1.0192E+00 dtmpmx=   5.2951E-02

== TH FLOW =====================================================================
 Step    217 Time=  1.02500E+01 Dt=  5.00000E-02 [y] snes_conv_reason:    3
  newton =   1 [     223] linear =   123 [     29270] cuts =  0 [   0]
  --> max chng: dpmx=   1.0238E+00 dtmpmx=   5.2752E-02

== TH FLOW =====================================================================
 Step    218 Time=  1.03000E+01 Dt=  5.00000E-02 [y] snes_conv_reason:    3
  newton =   1 [     224] linear =   129 [     29399] cuts =  0 [   0]
  --> max chng: dpmx=   1.0286E+00 dtmpmx=   5.2524E-02

== TH FLOW =====================================================================
 Step    219 Time=  1.03500E+01 Dt=  5.00000E-02 [y] snes_conv_reason:    3
  newton =   1 [     225] linear =   132 [     29531] cuts =  0 [   0]
  --> max chng: dpmx=   1.0331E+00 dtmpmx=   5.2321E-02

== TH FLOW =====================================================================
 Step    220 Time=  1.04000E+01 Dt=  5.00000E-02 [y] snes_conv_reason:    3
  newton =   1 [     226] linear =   129 [     29660] cuts =  0 [   0]
  --> max chng: dpmx=   1.0379E+00 dtmpmx=   5.2129E-02

== TH FLOW =====================================================================
 Step    221 Time=  1.04500E+01 Dt=  5.00000E-02 [y] snes_conv_reason:    3
  newton =   1 [     227] linear =   133 [     29793] cuts =  0 [   0]
  --> max chng: dpmx=   1.0427E+00 dtmpmx=   5.1908E-02

== TH FLOW =====================================================================
 Step    222 Time=  1.05000E+01 Dt=  5.00000E-02 [y] snes_conv_reason:    3
  newton =   1 [     228] linear =   133 [     29926] cuts =  0 [   0]
  --> max chng: dpmx=   1.0475E+00 dtmpmx=   5.1706E-02

== TH FLOW =====================================================================
 Step    223 Time=  1.05500E+01 Dt=  5.00000E-02 [y] snes_conv_reason:    3
  newton =   1 [     229] linear =   130 [     30056] cuts =  0 [   0]
  --> max chng: dpmx=   1.0519E+00 dtmpmx=   5.1521E-02

== TH FLOW =====================================================================
 Step    224 Time=  1.06000E+01 Dt=  5.00000E-02 [y] snes_conv_reason:    3
  newton =   1 [     230] linear =   129 [     30185] cuts =  0 [   0]
  --> max chng: dpmx=   1.0569E+00 dtmpmx=   5.1307E-02

== TH FLOW =====================================================================
 Step    225 Time=  1.06500E+01 Dt=  5.00000E-02 [y] snes_conv_reason:    3
  newton =   1 [     231] linear =   130 [     30315] cuts =  0 [   0]
  --> max chng: dpmx=   1.0618E+00 dtmpmx=   5.1105E-02

== TH FLOW =====================================================================
 Step    226 Time=  1.07000E+01 Dt=  5.00000E-02 [y] snes_conv_reason:    3
  newton =   1 [     232] linear =   131 [     30446] cuts =  0 [   0]
  --> max chng: dpmx=   1.0662E+00 dtmpmx=   5.0927E-02

== TH FLOW =====================================================================
 Step    227 Time=  1.07500E+01 Dt=  5.00000E-02 [y] snes_conv_reason:    3
  newton =   1 [     233] linear =   126 [     30572] cuts =  0 [   0]
  --> max chng: dpmx=   1.0710E+00 dtmpmx=   5.0720E-02

== TH FLOW =====================================================================
 Step    228 Time=  1.08000E+01 Dt=  5.00000E-02 [y] snes_conv_reason:    3
  newton =   1 [     234] linear =   128 [     30700] cuts =  0 [   0]
  --> max chng: dpmx=   1.0755E+00 dtmpmx=   5.0519E-02

== TH FLOW =====================================================================
 Step    229 Time=  1.08500E+01 Dt=  5.00000E-02 [y] snes_conv_reason:    3
  newton =   1 [     235] linear =   129 [     30829] cuts =  0 [   0]
  --> max chng: dpmx=   1.0806E+00 dtmpmx=   5.0347E-02

== TH FLOW =====================================================================
 Step    230 Time=  1.09000E+01 Dt=  5.00000E-02 [y] snes_conv_reason:    3
  newton =   1 [     236] linear =   122 [     30951] cuts =  0 [   0]
  --> max chng: dpmx=   1.0853E+00 dtmpmx=   5.0147E-02

== TH FLOW =====================================================================
 Step    231 Time=  1.09500E+01 Dt=  5.00000E-02 [y] snes_conv_reason:    3
  newton =   1 [     237] linear =   124 [     31075] cuts =  0 [   0]
  --> max chng: dpmx=   1.0900E+00 dtmpmx=   4.9947E-02

== TH FLOW =====================================================================
 Step    232 Time=  1.10000E+01 Dt=  5.00000E-02 [y] snes_conv_reason:    3
  newton =   1 [     238] linear =   131 [     31206] cuts =  0 [   0]
  --> max chng: dpmx=   1.0946E+00 dtmpmx=   4.9780E-02

== TH FLOW =====================================================================
 Step    233 Time=  1.10500E+01 Dt=  5.00000E-02 [y] snes_conv_reason:    3
  newton =   1 [     239] linear =   132 [     31338] cuts =  0 [   0]
  --> max chng: dpmx=   1.0993E+00 dtmpmx=   4.9587E-02

== TH FLOW =====================================================================
 Step    234 Time=  1.11000E+01 Dt=  5.00000E-02 [y] snes_conv_reason:    3
  newton =   1 [     240] linear =   127 [     31465] cuts =  0 [   0]
  --> max chng: dpmx=   1.1045E+00 dtmpmx=   4.9388E-02

== TH FLOW =====================================================================
 Step    235 Time=  1.11500E+01 Dt=  5.00000E-02 [y] snes_conv_reason:    3
  newton =   1 [     241] linear =   130 [     31595] cuts =  0 [   0]
  --> max chng: dpmx=   1.1089E+00 dtmpmx=   4.9227E-02

== TH FLOW =====================================================================
 Step    236 Time=  1.12000E+01 Dt=  5.00000E-02 [y] snes_conv_reason:    3
  newton =   1 [     242] linear =   131 [     31726] cuts =  0 [   0]
  --> max chng: dpmx=   1.1135E+00 dtmpmx=   4.9039E-02

== TH FLOW =====================================================================
 Step    237 Time=  1.12500E+01 Dt=  5.00000E-02 [y] snes_conv_reason:    3
  newton =   1 [     243] linear =   131 [     31857] cuts =  0 [   0]
  --> max chng: dpmx=   1.1185E+00 dtmpmx=   4.8841E-02

== TH FLOW =====================================================================
 Step    238 Time=  1.13000E+01 Dt=  5.00000E-02 [y] snes_conv_reason:    3
  newton =   1 [     244] linear =   131 [     31988] cuts =  0 [   0]
  --> max chng: dpmx=   1.1232E+00 dtmpmx=   4.8686E-02

== TH FLOW =====================================================================
 Step    239 Time=  1.13500E+01 Dt=  5.00000E-02 [y] snes_conv_reason:    3
  newton =   1 [     245] linear =   131 [     32119] cuts =  0 [   0]
  --> max chng: dpmx=   1.1281E+00 dtmpmx=   4.8504E-02

== TH FLOW =====================================================================
 Step    240 Time=  1.14000E+01 Dt=  5.00000E-02 [y] snes_conv_reason:    3
  newton =   1 [     246] linear =   125 [     32244] cuts =  0 [   0]
  --> max chng: dpmx=   1.1326E+00 dtmpmx=   4.8307E-02

== TH FLOW =====================================================================
 Step    241 Time=  1.14500E+01 Dt=  5.00000E-02 [y] snes_conv_reason:    3
  newton =   1 [     247] linear =   133 [     32377] cuts =  0 [   0]
  --> max chng: dpmx=   1.1377E+00 dtmpmx=   4.8156E-02

== TH FLOW =====================================================================
 Step    242 Time=  1.15000E+01 Dt=  5.00000E-02 [y] snes_conv_reason:    3
  newton =   1 [     248] linear =   133 [     32510] cuts =  0 [   0]
  --> max chng: dpmx=   1.1424E+00 dtmpmx=   4.7981E-02

== TH FLOW =====================================================================
 Step    243 Time=  1.15500E+01 Dt=  5.00000E-02 [y] snes_conv_reason:    3
  newton =   1 [     249] linear =   126 [     32636] cuts =  0 [   0]
  --> max chng: dpmx=   1.1470E+00 dtmpmx=   4.7784E-02

== TH FLOW =====================================================================
 Step    244 Time=  1.16000E+01 Dt=  5.00000E-02 [y] snes_conv_reason:    3
  newton =   1 [     250] linear =   133 [     32769] cuts =  0 [   0]
  --> max chng: dpmx=   1.1519E+00 dtmpmx=   4.7639E-02

== TH FLOW =====================================================================
 Step    245 Time=  1.16500E+01 Dt=  5.00000E-02 [y] snes_conv_reason:    3
  newton =   1 [     251] linear =   133 [     32902] cuts =  0 [   0]
  --> max chng: dpmx=   1.1567E+00 dtmpmx=   4.7469E-02

== TH FLOW =====================================================================
 Step    246 Time=  1.17000E+01 Dt=  5.00000E-02 [y] snes_conv_reason:    3
  newton =   1 [     252] linear =   133 [     33035] cuts =  0 [   0]
  --> max chng: dpmx=   1.1614E+00 dtmpmx=   4.7275E-02

== TH FLOW =====================================================================
 Step    247 Time=  1.17500E+01 Dt=  5.00000E-02 [y] snes_conv_reason:    3
  newton =   1 [     253] linear =   133 [     33168] cuts =  0 [   0]
  --> max chng: dpmx=   1.1663E+00 dtmpmx=   4.7133E-02

== TH FLOW =====================================================================
 Step    248 Time=  1.18000E+01 Dt=  5.00000E-02 [y] snes_conv_reason:    3
  newton =   1 [     254] linear =   131 [     33299] cuts =  0 [   0]
  --> max chng: dpmx=   1.1710E+00 dtmpmx=   4.6968E-02

== TH FLOW =====================================================================
 Step    249 Time=  1.18500E+01 Dt=  5.00000E-02 [y] snes_conv_reason:    3
  newton =   1 [     255] linear =   128 [     33427] cuts =  0 [   0]
  --> max chng: dpmx=   1.1757E+00 dtmpmx=   4.6780E-02

== TH FLOW =====================================================================
 Step    250 Time=  1.19000E+01 Dt=  5.00000E-02 [y] snes_conv_reason:    3
  newton =   1 [     256] linear =   135 [     33562] cuts =  0 [   0]
  --> max chng: dpmx=   1.1806E+00 dtmpmx=   4.6637E-02

== TH FLOW =====================================================================
 Step    251 Time=  1.19500E+01 Dt=  5.00000E-02 [y] snes_conv_reason:    3
  newton =   1 [     257] linear =   132 [     33694] cuts =  0 [   0]
  --> max chng: dpmx=   1.1853E+00 dtmpmx=   4.6478E-02

== TH FLOW =====================================================================
 Step    252 Time=  1.20000E+01 Dt=  5.00000E-02 [y] snes_conv_reason:    3
  newton =   1 [     258] linear =   142 [     33836] cuts =  0 [   0]
  --> max chng: dpmx=   1.1903E+00 dtmpmx=   4.6296E-02

== TH FLOW =====================================================================
 Step    253 Time=  1.20500E+01 Dt=  5.00000E-02 [y] snes_conv_reason:    3
  newton =   1 [     259] linear =   133 [     33969] cuts =  0 [   0]
  --> max chng: dpmx=   1.1951E+00 dtmpmx=   4.6153E-02

== TH FLOW =====================================================================
 Step    254 Time=  1.21000E+01 Dt=  5.00000E-02 [y] snes_conv_reason:    3
  newton =   1 [     260] linear =   134 [     34103] cuts =  0 [   0]
  --> max chng: dpmx=   1.1998E+00 dtmpmx=   4.5998E-02

== TH FLOW =====================================================================
 Step    255 Time=  1.21500E+01 Dt=  5.00000E-02 [y] snes_conv_reason:    3
  newton =   1 [     261] linear =   126 [     34229] cuts =  0 [   0]
  --> max chng: dpmx=   1.2046E+00 dtmpmx=   4.5822E-02

== TH FLOW =====================================================================
 Step    256 Time=  1.22000E+01 Dt=  5.00000E-02 [y] snes_conv_reason:    3
  newton =   1 [     262] linear =   134 [     34363] cuts =  0 [   0]
  --> max chng: dpmx=   1.2096E+00 dtmpmx=   4.5678E-02

== TH FLOW =====================================================================
 Step    257 Time=  1.22500E+01 Dt=  5.00000E-02 [y] snes_conv_reason:    3
  newton =   1 [     263] linear =   130 [     34493] cuts =  0 [   0]
  --> max chng: dpmx=   1.2141E+00 dtmpmx=   4.5529E-02

[...]
 Step    493 Time=  2.40500E+01 Dt=  5.00000E-02 [y] snes_conv_reason:   11
  newton =   1 [     499] linear =   121 [     65092] cuts =  0 [   0]
  --> max chng: dpmx=   1.0554E-02 dtmpmx=   1.1199E-04

== TH FLOW =====================================================================
 Step    494 Time=  2.41000E+01 Dt=  5.00000E-02 [y] snes_conv_reason:   11
  newton =   1 [     500] linear =   115 [     65207] cuts =  0 [   0]
  --> max chng: dpmx=   1.0560E-02 dtmpmx=   1.1194E-04

== TH FLOW =====================================================================
 Step    495 Time=  2.41500E+01 Dt=  5.00000E-02 [y] snes_conv_reason:   11
  newton =   1 [     501] linear =   115 [     65322] cuts =  0 [   0]
  --> max chng: dpmx=   1.0564E-02 dtmpmx=   1.1189E-04

== TH FLOW =====================================================================
 Step    496 Time=  2.42000E+01 Dt=  5.00000E-02 [y] snes_conv_reason:   11
  newton =   1 [     502] linear =   123 [     65445] cuts =  0 [   0]
  --> max chng: dpmx=   1.0567E-02 dtmpmx=   1.1183E-04

== TH FLOW =====================================================================
 Step    497 Time=  2.42500E+01 Dt=  5.00000E-02 [y] snes_conv_reason:   11
  newton =   1 [     503] linear =   124 [     65569] cuts =  0 [   0]
  --> max chng: dpmx=   1.0571E-02 dtmpmx=   1.1179E-04

== TH FLOW =====================================================================
 Step    498 Time=  2.43000E+01 Dt=  5.00000E-02 [y] snes_conv_reason:   11
  newton =   1 [     504] linear =   125 [     65694] cuts =  0 [   0]
  --> max chng: dpmx=   1.0573E-02 dtmpmx=   1.1173E-04

== TH FLOW =====================================================================
 Step    499 Time=  2.43500E+01 Dt=  5.00000E-02 [y] snes_conv_reason:   11
  newton =   1 [     505] linear =   116 [     65810] cuts =  0 [   0]
  --> max chng: dpmx=   1.0575E-02 dtmpmx=   1.1168E-04

== TH FLOW =====================================================================
 Step    500 Time=  2.44000E+01 Dt=  5.00000E-02 [y] snes_conv_reason:   11
  newton =   1 [     506] linear =   117 [     65927] cuts =  0 [   0]
  --> max chng: dpmx=   1.0577E-02 dtmpmx=   1.1163E-04

== TH FLOW =====================================================================
 Step    501 Time=  2.44500E+01 Dt=  5.00000E-02 [y] snes_conv_reason:   11
  newton =   1 [     507] linear =   129 [     66056] cuts =  0 [   0]
  --> max chng: dpmx=   1.0578E-02 dtmpmx=   1.1158E-04

== TH FLOW =====================================================================
 Step    502 Time=  2.45000E+01 Dt=  5.00000E-02 [y] snes_conv_reason:   11
  newton =   1 [     508] linear =   129 [     66185] cuts =  0 [   0]
  --> max chng: dpmx=   1.0577E-02 dtmpmx=   1.1153E-04

== TH FLOW =====================================================================
 Step    503 Time=  2.45500E+01 Dt=  5.00000E-02 [y] snes_conv_reason:   11
  newton =   1 [     509] linear =   104 [     66289] cuts =  0 [   0]
  --> max chng: dpmx=   1.0577E-02 dtmpmx=   1.1147E-04

== TH FLOW =====================================================================
 Step    504 Time=  2.46000E+01 Dt=  5.00000E-02 [y] snes_conv_reason:   11
  newton =   1 [     510] linear =   123 [     66412] cuts =  0 [   0]
  --> max chng: dpmx=   1.0577E-02 dtmpmx=   1.1142E-04

== TH FLOW =====================================================================
 Step    505 Time=  2.46500E+01 Dt=  5.00000E-02 [y] snes_conv_reason:   11
  newton =   1 [     511] linear =   125 [     66537] cuts =  0 [   0]
  --> max chng: dpmx=   1.0574E-02 dtmpmx=   1.1137E-04

== TH FLOW =====================================================================
 Step    506 Time=  2.47000E+01 Dt=  5.00000E-02 [y] snes_conv_reason:   11
  newton =   1 [     512] linear =   113 [     66650] cuts =  0 [   0]
  --> max chng: dpmx=   1.0572E-02 dtmpmx=   1.1131E-04

== TH FLOW =====================================================================
 Step    507 Time=  2.47500E+01 Dt=  5.00000E-02 [y] snes_conv_reason:   11
  newton =   1 [     513] linear =   117 [     66767] cuts =  0 [   0]
  --> max chng: dpmx=   1.0569E-02 dtmpmx=   1.1126E-04

== TH FLOW =====================================================================
 Step    508 Time=  2.48000E+01 Dt=  5.00000E-02 [y] snes_conv_reason:   11
  newton =   1 [     514] linear =   118 [     66885] cuts =  0 [   0]
  --> max chng: dpmx=   1.0565E-02 dtmpmx=   1.1120E-04

== TH FLOW =====================================================================
 Step    509 Time=  2.48500E+01 Dt=  5.00000E-02 [y] snes_conv_reason:   11
  newton =   1 [     515] linear =   122 [     67007] cuts =  0 [   0]
  --> max chng: dpmx=   1.0561E-02 dtmpmx=   1.1115E-04

== TH FLOW =====================================================================
 Step    510 Time=  2.49000E+01 Dt=  5.00000E-02 [y] snes_conv_reason:   11
  newton =   1 [     516] linear =   121 [     67128] cuts =  0 [   0]
  --> max chng: dpmx=   1.0556E-02 dtmpmx=   1.1110E-04

== TH FLOW =====================================================================
 Step    511 Time=  2.49500E+01 Dt=  5.00000E-02 [y] snes_conv_reason:   11
  newton =   1 [     517] linear =   123 [     67251] cuts =  0 [   0]
  --> max chng: dpmx=   1.0551E-02 dtmpmx=   1.1105E-04

== TH FLOW =====================================================================
 Step    512 Time=  2.50000E+01 Dt=  5.00000E-02 [y] snes_conv_reason:   11
  newton =   1 [     518] linear =   120 [     67371] cuts =  0 [   0]
  --> max chng: dpmx=   1.0545E-02 dtmpmx=   1.1099E-04

== TH FLOW =====================================================================
 Step    513 Time=  2.50500E+01 Dt=  5.00000E-02 [y] snes_conv_reason:   11
  newton =   1 [     519] linear =   121 [     67492] cuts =  0 [   0]
  --> max chng: dpmx=   1.0538E-02 dtmpmx=   1.1094E-04

== TH FLOW =====================================================================
 Step    514 Time=  2.51000E+01 Dt=  5.00000E-02 [y] snes_conv_reason:   11
  newton =   1 [     520] linear =   124 [     67616] cuts =  0 [   0]
  --> max chng: dpmx=   1.0531E-02 dtmpmx=   1.1088E-04

== TH FLOW =====================================================================
 Step    515 Time=  2.51500E+01 Dt=  5.00000E-02 [y] snes_conv_reason:   11
  newton =   1 [     521] linear =   121 [     67737] cuts =  0 [   0]
  --> max chng: dpmx=   1.0523E-02 dtmpmx=   1.1083E-04

== TH FLOW =====================================================================
 Step    516 Time=  2.52000E+01 Dt=  5.00000E-02 [y] snes_conv_reason:   11
  newton =   1 [     522] linear =   120 [     67857] cuts =  0 [   0]
  --> max chng: dpmx=   1.0514E-02 dtmpmx=   1.1079E-04

== TH FLOW =====================================================================
 Step    517 Time=  2.52500E+01 Dt=  5.00000E-02 [y] snes_conv_reason:   11
  newton =   1 [     523] linear =   120 [     67977] cuts =  0 [   0]
  --> max chng: dpmx=   1.0505E-02 dtmpmx=   1.1076E-04

== TH FLOW =====================================================================
 Step    518 Time=  2.53000E+01 Dt=  5.00000E-02 [y] snes_conv_reason:   11
  newton =   1 [     524] linear =   120 [     68097] cuts =  0 [   0]
  --> max chng: dpmx=   1.0495E-02 dtmpmx=   1.1073E-04

== TH FLOW =====================================================================
 Step    519 Time=  2.53500E+01 Dt=  5.00000E-02 [y] snes_conv_reason:   11
  newton =   1 [     525] linear =   118 [     68215] cuts =  0 [   0]
  --> max chng: dpmx=   1.0485E-02 dtmpmx=   1.1070E-04

== TH FLOW =====================================================================
 Step    520 Time=  2.54000E+01 Dt=  5.00000E-02 [y] snes_conv_reason:   11
  newton =   1 [     526] linear =   116 [     68331] cuts =  0 [   0]
  --> max chng: dpmx=   1.0473E-02 dtmpmx=   1.1067E-04

== TH FLOW =====================================================================
 Step    521 Time=  2.54500E+01 Dt=  5.00000E-02 [y] snes_conv_reason:   11
  newton =   1 [     527] linear =   115 [     68446] cuts =  0 [   0]
  --> max chng: dpmx=   1.0461E-02 dtmpmx=   1.1063E-04

== TH FLOW =====================================================================
 Step    522 Time=  2.55000E+01 Dt=  5.00000E-02 [y] snes_conv_reason:   11
  newton =   1 [     528] linear =   112 [     68558] cuts =  0 [   0]
  --> max chng: dpmx=   1.0449E-02 dtmpmx=   1.1060E-04

== TH FLOW =====================================================================
 Step    523 Time=  2.55500E+01 Dt=  5.00000E-02 [y] snes_conv_reason:   11
  newton =   1 [     529] linear =   113 [     68671] cuts =  0 [   0]
  --> max chng: dpmx=   1.0436E-02 dtmpmx=   1.1057E-04

== TH FLOW =====================================================================
 Step    524 Time=  2.56000E+01 Dt=  5.00000E-02 [y] snes_conv_reason:   11
  newton =   1 [     530] linear =   119 [     68790] cuts =  0 [   0]
  --> max chng: dpmx=   1.0424E-02 dtmpmx=   1.1054E-04

== TH FLOW =====================================================================
 Step    525 Time=  2.56500E+01 Dt=  5.00000E-02 [y] snes_conv_reason:   11
  newton =   1 [     531] linear =   125 [     68915] cuts =  0 [   0]
  --> max chng: dpmx=   1.0408E-02 dtmpmx=   1.1050E-04

== TH FLOW =====================================================================
 Step    526 Time=  2.57000E+01 Dt=  5.00000E-02 [y] snes_conv_reason:   11
  newton =   1 [     532] linear =   123 [     69038] cuts =  0 [   0]
  --> max chng: dpmx=   1.0394E-02 dtmpmx=   1.1047E-04

== TH FLOW =====================================================================
 Step    527 Time=  2.57500E+01 Dt=  5.00000E-02 [y] snes_conv_reason:   11
  newton =   1 [     533] linear =   123 [     69161] cuts =  0 [   0]
  --> max chng: dpmx=   1.0378E-02 dtmpmx=   1.1043E-04

== TH FLOW =====================================================================
 Step    528 Time=  2.58000E+01 Dt=  5.00000E-02 [y] snes_conv_reason:   11
  newton =   1 [     534] linear =   122 [     69283] cuts =  0 [   0]
  --> max chng: dpmx=   1.0362E-02 dtmpmx=   1.1040E-04

== TH FLOW =====================================================================
 Step    529 Time=  2.58500E+01 Dt=  5.00000E-02 [y] snes_conv_reason:   11
  newton =   1 [     535] linear =   123 [     69406] cuts =  0 [   0]
  --> max chng: dpmx=   1.0345E-02 dtmpmx=   1.1036E-04

== TH FLOW =====================================================================
 Step    530 Time=  2.59000E+01 Dt=  5.00000E-02 [y] snes_conv_reason:   11
  newton =   1 [     536] linear =   115 [     69521] cuts =  0 [   0]
  --> max chng: dpmx=   1.0327E-02 dtmpmx=   1.1033E-04

== TH FLOW =====================================================================
 Step    531 Time=  2.59500E+01 Dt=  5.00000E-02 [y] snes_conv_reason:   11
  newton =   1 [     537] linear =   123 [     69644] cuts =  0 [   0]
  --> max chng: dpmx=   1.0311E-02 dtmpmx=   1.1029E-04

== TH FLOW =====================================================================
 Step    532 Time=  2.60000E+01 Dt=  5.00000E-02 [y] snes_conv_reason:   11
  newton =   1 [     538] linear =   123 [     69767] cuts =  0 [   0]
  --> max chng: dpmx=   1.0291E-02 dtmpmx=   1.1025E-04

== TH FLOW =====================================================================
 Step    533 Time=  2.60500E+01 Dt=  5.00000E-02 [y] snes_conv_reason:   11
  newton =   1 [     539] linear =   123 [     69890] cuts =  0 [   0]
  --> max chng: dpmx=   1.0271E-02 dtmpmx=   1.1021E-04

== TH FLOW =====================================================================
 Step    534 Time=  2.61000E+01 Dt=  5.00000E-02 [y] snes_conv_reason:   11
  newton =   1 [     540] linear =   124 [     70014] cuts =  0 [   0]
  --> max chng: dpmx=   1.0253E-02 dtmpmx=   1.1018E-04

== TH FLOW =====================================================================
 Step    535 Time=  2.61500E+01 Dt=  5.00000E-02 [y] snes_conv_reason:   11
  newton =   1 [     541] linear =   103 [     70117] cuts =  0 [   0]
  --> max chng: dpmx=   1.0232E-02 dtmpmx=   1.1014E-04

== TH FLOW =====================================================================
 Step    536 Time=  2.62000E+01 Dt=  5.00000E-02 [y] snes_conv_reason:   11
  newton =   1 [     542] linear =   121 [     70238] cuts =  0 [   0]
  --> max chng: dpmx=   1.0210E-02 dtmpmx=   1.1010E-04

== TH FLOW =====================================================================
 Step    537 Time=  2.62500E+01 Dt=  5.00000E-02 [y] snes_conv_reason:   11
  newton =   1 [     543] linear =   123 [     70361] cuts =  0 [   0]
  --> max chng: dpmx=   1.0188E-02 dtmpmx=   1.1006E-04

== TH FLOW =====================================================================
 Step    538 Time=  2.63000E+01 Dt=  5.00000E-02 [y] snes_conv_reason:   11
  newton =   1 [     544] linear =   117 [     70478] cuts =  0 [   0]
  --> max chng: dpmx=   1.0165E-02 dtmpmx=   1.1002E-04

== TH FLOW =====================================================================
 Step    539 Time=  2.63500E+01 Dt=  5.00000E-02 [y] snes_conv_reason:   11
  newton =   1 [     545] linear =   117 [     70595] cuts =  0 [   0]
  --> max chng: dpmx=   1.0144E-02 dtmpmx=   1.0998E-04

== TH FLOW =====================================================================
 Step    540 Time=  2.64000E+01 Dt=  5.00000E-02 [y] snes_conv_reason:   11
  newton =   1 [     546] linear =   123 [     70718] cuts =  0 [   0]
  --> max chng: dpmx=   1.0121E-02 dtmpmx=   1.0994E-04

== TH FLOW =====================================================================
 Step    541 Time=  2.64500E+01 Dt=  5.00000E-02 [y] snes_conv_reason:   11
  newton =   1 [     547] linear =   109 [     70827] cuts =  0 [   0]
  --> max chng: dpmx=   1.0096E-02 dtmpmx=   1.0990E-04

== TH FLOW =====================================================================
 Step    542 Time=  2.65000E+01 Dt=  5.00000E-02 [y] snes_conv_reason:   11
  newton =   1 [     548] linear =   109 [     70936] cuts =  0 [   0]
  --> max chng: dpmx=   1.0071E-02 dtmpmx=   1.0986E-04

== TH FLOW =====================================================================
 Step    543 Time=  2.65500E+01 Dt=  5.00000E-02 [y] snes_conv_reason:   11
  newton =   1 [     549] linear =   114 [     71050] cuts =  0 [   0]
  --> max chng: dpmx=   1.0046E-02 dtmpmx=   1.0982E-04

== TH FLOW =====================================================================
 Step    544 Time=  2.66000E+01 Dt=  5.00000E-02 [y] snes_conv_reason:   11
  newton =   1 [     550] linear =   123 [     71173] cuts =  0 [   0]
  --> max chng: dpmx=   1.0019E-02 dtmpmx=   1.0978E-04

== TH FLOW =====================================================================
 Step    545 Time=  2.66500E+01 Dt=  5.00000E-02 [y] snes_conv_reason:   11
  newton =   1 [     551] linear =   116 [     71289] cuts =  0 [   0]
  --> max chng: dpmx=   9.9936E-03 dtmpmx=   1.0973E-04

== TH FLOW =====================================================================
 Step    546 Time=  2.67000E+01 Dt=  5.00000E-02 [y] snes_conv_reason:   11
  newton =   1 [     552] linear =   118 [     71407] cuts =  0 [   0]
  --> max chng: dpmx=   9.9640E-03 dtmpmx=   1.0969E-04

== TH FLOW =====================================================================
 Step    547 Time=  2.67500E+01 Dt=  5.00000E-02 [y] snes_conv_reason:   11
  newton =   1 [     553] linear =   118 [     71525] cuts =  0 [   0]
  --> max chng: dpmx=   9.9375E-03 dtmpmx=   1.0965E-04

== TH FLOW =====================================================================
 Step    548 Time=  2.68000E+01 Dt=  5.00000E-02 [y] snes_conv_reason:   11
  newton =   1 [     554] linear =   118 [     71643] cuts =  0 [   0]
  --> max chng: dpmx=   9.9088E-03 dtmpmx=   1.0961E-04

== TH FLOW =====================================================================
 Step    549 Time=  2.68500E+01 Dt=  5.00000E-02 [y] snes_conv_reason:   11
  newton =   1 [     555] linear =   118 [     71761] cuts =  0 [   0]
  --> max chng: dpmx=   9.8796E-03 dtmpmx=   1.0956E-04

== TH FLOW =====================================================================
 Step    550 Time=  2.69000E+01 Dt=  5.00000E-02 [y] snes_conv_reason:   11
  newton =   1 [     556] linear =   118 [     71879] cuts =  0 [   0]
  --> max chng: dpmx=   9.8499E-03 dtmpmx=   1.0952E-04

== TH FLOW =====================================================================
 Step    551 Time=  2.69500E+01 Dt=  5.00000E-02 [y] snes_conv_reason:   11
  newton =   1 [     557] linear =   119 [     71998] cuts =  0 [   0]
  --> max chng: dpmx=   9.8191E-03 dtmpmx=   1.0948E-04

== TH FLOW =====================================================================
 Step    552 Time=  2.70000E+01 Dt=  5.00000E-02 [y] snes_conv_reason:   11
  newton =   1 [     558] linear =   119 [     72117] cuts =  0 [   0]
  --> max chng: dpmx=   9.7884E-03 dtmpmx=   1.0943E-04

== TH FLOW =====================================================================
 Step    553 Time=  2.70500E+01 Dt=  5.00000E-02 [y] snes_conv_reason:   11
  newton =   1 [     559] linear =   117 [     72234] cuts =  0 [   0]
  --> max chng: dpmx=   9.7564E-03 dtmpmx=   1.0939E-04

== TH FLOW =====================================================================
 Step    554 Time=  2.71000E+01 Dt=  5.00000E-02 [y] snes_conv_reason:   11
  newton =   1 [     560] linear =   118 [     72352] cuts =  0 [   0]
  --> max chng: dpmx=   9.7242E-03 dtmpmx=   1.0934E-04

== TH FLOW =====================================================================
 Step    555 Time=  2.71500E+01 Dt=  5.00000E-02 [y] snes_conv_reason:   11
  newton =   1 [     561] linear =   117 [     72469] cuts =  0 [   0]
  --> max chng: dpmx=   9.6906E-03 dtmpmx=   1.0930E-04

== TH FLOW =====================================================================
 Step    556 Time=  2.72000E+01 Dt=  5.00000E-02 [y] snes_conv_reason:   11
  newton =   1 [     562] linear =   117 [     72586] cuts =  0 [   0]
  --> max chng: dpmx=   9.6584E-03 dtmpmx=   1.0925E-04

== TH FLOW =====================================================================
 Step    557 Time=  2.72500E+01 Dt=  5.00000E-02 [y] snes_conv_reason:   11
  newton =   1 [     563] linear =   115 [     72701] cuts =  0 [   0]
  --> max chng: dpmx=   9.6244E-03 dtmpmx=   1.0921E-04

== TH FLOW =====================================================================
 Step    558 Time=  2.73000E+01 Dt=  5.00000E-02 [y] snes_conv_reason:   11
  newton =   1 [     564] linear =   112 [     72813] cuts =  0 [   0]
  --> max chng: dpmx=   9.5884E-03 dtmpmx=   1.0916E-04

== TH FLOW =====================================================================
 Step    559 Time=  2.73500E+01 Dt=  5.00000E-02 [y] snes_conv_reason:   11
  newton =   1 [     565] linear =   109 [     72922] cuts =  0 [   0]
  --> max chng: dpmx=   9.5521E-03 dtmpmx=   1.0912E-04

== TH FLOW =====================================================================
 Step    560 Time=  2.74000E+01 Dt=  5.00000E-02 [y] snes_conv_reason:   11
  newton =   1 [     566] linear =   111 [     73033] cuts =  0 [   0]
  --> max chng: dpmx=   9.5187E-03 dtmpmx=   1.0907E-04

== TH FLOW =====================================================================
 Step    561 Time=  2.74500E+01 Dt=  5.00000E-02 [y] snes_conv_reason:   11
  newton =   1 [     567] linear =   124 [     73157] cuts =  0 [   0]
  --> max chng: dpmx=   9.4811E-03 dtmpmx=   1.0902E-04

== TH FLOW =====================================================================
 Step    562 Time=  2.75000E+01 Dt=  5.00000E-02 [y] snes_conv_reason:   11
  newton =   1 [     568] linear =   123 [     73280] cuts =  0 [   0]
  --> max chng: dpmx=   9.4437E-03 dtmpmx=   1.0898E-04

 Wall Clock Time:  1.2309E+02 [sec]   2.0516E+00 [min]   3.4193E-02 [hr]
