
===================
  PFLOTRAN v3.0.1
===================

 Extent of Gridded Domain
  X: 2.5000000000000000 - 97.500000000000000
  Y: 2.5000000000000000 - 1277.5000000000000
  Z: 2.5000000000000000 - 2.5000000000000000


=+=+=+=+=+=+=+=+=+=+=+=+=+=+=+=+=+=+=+=+=+=+=+=+=+=+=+=+=+=+=+=+=+=+=+=+=+=+=+=+

  Initial Condition

--------------------------------------------------------------------------------
          Flow Condition:   initial
                  Region:   all
--------------------------------------------------------------------------------

  Flow Condition: initial
    Synchronize time with update: no
    Time units: yr
    Length units: m
      Datum:
        Dataset: Unnamed Ascii Dataset
          Type: dataset_ascii_type
          Transient: no
          Array Rank:  3

    Sub Condition: pressure
      Type: hydrostatic
      Gradient:
        Dataset: Unnamed Ascii Dataset
          Type: dataset_ascii_type
          Transient: no
          Array Rank:  3
      Data:
        Dataset: Unnamed Ascii Dataset
          Type: dataset_ascii_type
          Transient: no
          Array Rank:  1

    Sub Condition: temperature
      Type: dirichlet
      Gradient:
      Data:
        Dataset: Unnamed Ascii Dataset
          Type: dataset_ascii_type
          Transient: no
          Array Rank:  1

--------------------------------------------------------------------------------

=+=+=+=+=+=+=+=+=+=+=+=+=+=+=+=+=+=+=+=+=+=+=+=+=+=+=+=+=+=+=+=+=+=+=+=+=+=+=+=+

  Boundary Condition

--------------------------------------------------------------------------------
          Flow Condition:   initial
                  Region:   north
--------------------------------------------------------------------------------

  Flow Condition: initial
    Synchronize time with update: no
    Time units: yr
    Length units: m
      Datum:
        Dataset: Unnamed Ascii Dataset
          Type: dataset_ascii_type
          Transient: no
          Array Rank:  3

    Sub Condition: pressure
      Type: hydrostatic
      Gradient:
        Dataset: Unnamed Ascii Dataset
          Type: dataset_ascii_type
          Transient: no
          Array Rank:  3
      Data:
        Dataset: Unnamed Ascii Dataset
          Type: dataset_ascii_type
          Transient: no
          Array Rank:  1

    Sub Condition: temperature
      Type: dirichlet
      Gradient:
      Data:
        Dataset: Unnamed Ascii Dataset
          Type: dataset_ascii_type
          Transient: no
          Array Rank:  1

--------------------------------------------------------------------------------

=+=+=+=+=+=+=+=+=+=+=+=+=+=+=+=+=+=+=+=+=+=+=+=+=+=+=+=+=+=+=+=+=+=+=+=+=+=+=+=+

  Boundary Condition

--------------------------------------------------------------------------------
          Flow Condition:   initial
                  Region:   south
--------------------------------------------------------------------------------

  Flow Condition: initial
    Synchronize time with update: no
    Time units: yr
    Length units: m
      Datum:
        Dataset: Unnamed Ascii Dataset
          Type: dataset_ascii_type
          Transient: no
          Array Rank:  3

    Sub Condition: pressure
      Type: hydrostatic
      Gradient:
        Dataset: Unnamed Ascii Dataset
          Type: dataset_ascii_type
          Transient: no
          Array Rank:  3
      Data:
        Dataset: Unnamed Ascii Dataset
          Type: dataset_ascii_type
          Transient: no
          Array Rank:  1

    Sub Condition: temperature
      Type: dirichlet
      Gradient:
      Data:
        Dataset: Unnamed Ascii Dataset
          Type: dataset_ascii_type
          Transient: no
          Array Rank:  1

--------------------------------------------------------------------------------

=+=+=+=+=+=+=+=+=+=+=+=+=+=+=+=+=+=+=+=+=+=+=+=+=+=+=+=+=+=+=+=+=+=+=+=+=+=+=+=+

  Source Sink

--------------------------------------------------------------------------------
          Flow Condition:   injection
                  Region:   heatpump_inject0
--------------------------------------------------------------------------------

  Flow Condition: injection
    Synchronize time with update: no
    Time units: yr
    Length units: m
      Datum:

    Sub Condition: rate
      Type: scaled volumetric rate
      Gradient:
      Data:
        Dataset: Unnamed Ascii Dataset
          Type: dataset_ascii_type
          Is transient?: yes
          Number of times:      3
          Is cyclic?: no
          Buffer:
            Rank:  2
            Dims:    1   3
            Buffer Slice Size:   0
          Array Rank:  1

    Sub Condition: temperature
      Type: dirichlet
      Gradient:
      Data:
        Dataset: Unnamed Ascii Dataset
          Type: dataset_ascii_type
          Transient: no
          Array Rank:  1

--------------------------------------------------------------------------------

 Requested processors =    16

FLOW Time Stepper
                 acceleration: on
       acceleration threshold: 5
       number of ramp entries: 5
                ramp entry #1: 2.0000
                ramp entry #2: 2.0000
                ramp entry #3: 2.0000
                ramp entry #4: 2.0000
                ramp entry #5: 2.0000
                ramp entry #6: 1.8000
                ramp entry #7: 1.6000
                ramp entry #8: 1.4000
                ramp entry #9: 1.2000
               ramp entry #10: 1.0000
               ramp entry #11: 1.0000
               ramp entry #12: 1.0000
               ramp entry #13: 1.0000
      maximum number of steps: 999999
constant time steps threshold: 5
       maximum number of cuts: 16
             reduction factor: 5.000000E-01
        maximum growth factor: 2.000000E+00

FLOW Newton Solver
                         atol: 1.000000E-50
                         rtol: 1.000000E-03
                         stol: 1.000000E-08
                         dtol: 1.000000E+04
                      maxnorm: 1.000000E+20
                    inftolres: -9.990000E+02
                    inftolupd: 1.000000E+00
                 inftolrelupd: -9.990000E+02
                 inftolsclres: -9.990000E+02
                     max iter: 50
                     min iter: 1
                         maxf: 10000
                  matrix type: baij
         precond. matrix type: baij
               inexact newton: off
            print convergence: on
   print detailed convergence: off
          check infinity norm: on

FLOW Linear Solver
                       solver: bcgs
               preconditioner: bjacobi
                         atol: 1.000000E-50
                         rtol: 1.000000E-05
                         dtol: 1.000000E+04
            maximum iteration: 10000

== TH FLOW =====================================================================
 Step      1 Time=  1.00000E-05 Dt=  1.00000E-05 [y] snes_conv_reason:   11
  newton =   1 [       1] linear =    61 [        61] cuts =  0 [   0]
  --> max chng: dpmx=   1.6944E-02 dtmpmx=   5.6728E-10

== TH FLOW =====================================================================
 Step      2 Time=  3.00000E-05 Dt=  2.00000E-05 [y] snes_conv_reason:   11
  newton =   1 [       2] linear =    60 [       121] cuts =  0 [   0]
  --> max chng: dpmx=   2.9114E-02 dtmpmx=   1.1286E-09

== TH FLOW =====================================================================
 Step      3 Time=  7.00000E-05 Dt=  4.00000E-05 [y] snes_conv_reason:   11
  newton =   1 [       3] linear =    61 [       182] cuts =  0 [   0]
  --> max chng: dpmx=   3.9560E-02 dtmpmx=   2.2338E-09

== TH FLOW =====================================================================
 Step      4 Time=  1.50000E-04 Dt=  8.00000E-05 [y] snes_conv_reason:   11
  newton =   1 [       4] linear =    54 [       236] cuts =  0 [   0]
  --> max chng: dpmx=   3.8708E-02 dtmpmx=   4.4171E-09

== TH FLOW =====================================================================
 Step      5 Time=  3.10000E-04 Dt=  1.60000E-04 [y] snes_conv_reason:   11
  newton =   1 [       5] linear =    52 [       288] cuts =  0 [   0]
  --> max chng: dpmx=   2.4712E-02 dtmpmx=   8.7682E-09

== TH FLOW =====================================================================
 Step      6 Time=  6.30000E-04 Dt=  3.20000E-04 [y] snes_conv_reason:   11
  newton =   1 [       6] linear =    56 [       344] cuts =  0 [   0]
  --> max chng: dpmx=   9.3603E-03 dtmpmx=   1.7486E-08

== TH FLOW =====================================================================
 Step      7 Time=  1.27000E-03 Dt=  6.40000E-04 [y] snes_conv_reason:   11
  newton =   1 [       7] linear =    93 [       437] cuts =  0 [   0]
  --> max chng: dpmx=   1.9573E-03 dtmpmx=   3.4952E-08

== TH FLOW =====================================================================
 Step      8 Time=  2.55000E-03 Dt=  1.28000E-03 [y] snes_conv_reason:   11
  newton =   1 [       8] linear =   122 [       559] cuts =  0 [   0]
  --> max chng: dpmx=   2.1576E-04 dtmpmx=   6.9901E-08

== TH FLOW =====================================================================
 Step      9 Time=  5.11000E-03 Dt=  2.56000E-03 [y] snes_conv_reason:   11
  newton =   1 [       9] linear =   123 [       682] cuts =  0 [   0]
  --> max chng: dpmx=   1.1924E-05 dtmpmx=   1.3980E-07

== TH FLOW =====================================================================
 Step     10 Time=  1.02300E-02 Dt=  5.12000E-03 [y] snes_conv_reason:   11
  newton =   1 [      10] linear =   125 [       807] cuts =  0 [   0]
  --> max chng: dpmx=   1.2881E-06 dtmpmx=   2.7960E-07

== TH FLOW =====================================================================
 Step     11 Time=  2.04700E-02 Dt=  1.02400E-02 [y] snes_conv_reason:   11
  newton =   1 [      11] linear =   124 [       931] cuts =  0 [   0]
  --> max chng: dpmx=   2.6401E-06 dtmpmx=   5.5921E-07

== TH FLOW =====================================================================
 Step     12 Time=  4.09500E-02 Dt=  2.04800E-02 [y] snes_conv_reason:   11
  newton =   1 [      12] linear =   121 [      1052] cuts =  0 [   0]
  --> max chng: dpmx=   5.4449E-06 dtmpmx=   1.1184E-06

== TH FLOW =====================================================================
 Step     13 Time=  8.19100E-02 Dt=  4.09600E-02 [y] snes_conv_reason:   11
  newton =   1 [      13] linear =   122 [      1174] cuts =  0 [   0]
  --> max chng: dpmx=   1.1524E-05 dtmpmx=   2.2368E-06

== TH FLOW =====================================================================
 Step     14 Time=  1.00000E-01 Dt=  1.80900E-02 [y] snes_conv_reason:   11
  newton =   1 [      14] linear =   122 [      1296] cuts =  0 [   0]
  --> max chng: dpmx=   5.2199E-06 dtmpmx=   9.8790E-07

== TH FLOW =====================================================================
 Step     15 Time=  1.50000E-01 Dt=  5.00000E-02 [y] snes_conv_reason:   11
  newton =   1 [      15] linear =   122 [      1418] cuts =  0 [   0]
  --> max chng: dpmx=   1.5398E-05 dtmpmx=   2.7305E-06

== TH FLOW =====================================================================
 Step     16 Time=  2.00000E-01 Dt=  5.00000E-02 [y] snes_conv_reason:   11
  newton =   1 [      16] linear =   116 [      1534] cuts =  0 [   0]
  --> max chng: dpmx=   1.6351E-05 dtmpmx=   2.7305E-06

== TH FLOW =====================================================================
 Step     17 Time=  2.50000E-01 Dt=  5.00000E-02 [y] snes_conv_reason:    3
  newton =   4 [      20] linear =   476 [      2010] cuts =  0 [   0]
  --> max chng: dpmx=   8.5598E+03 dtmpmx=   3.5020E+00

== TH FLOW =====================================================================
 Step     18 Time=  3.00000E-01 Dt=  5.00000E-02 [y] snes_conv_reason:   11
  newton =   2 [      22] linear =   217 [      2227] cuts =  0 [   0]
  --> max chng: dpmx=   5.4440E+01 dtmpmx=   1.2064E+00

== TH FLOW =====================================================================
 Step     19 Time=  3.50000E-01 Dt=  5.00000E-02 [y] snes_conv_reason:   11
  newton =   2 [      24] linear =   234 [      2461] cuts =  0 [   0]
  --> max chng: dpmx=   2.7958E+01 dtmpmx=   8.5212E-01

== TH FLOW =====================================================================
 Step     20 Time=  4.00000E-01 Dt=  5.00000E-02 [y] snes_conv_reason:   11
  newton =   2 [      26] linear =   235 [      2696] cuts =  0 [   0]
  --> max chng: dpmx=   1.7318E+01 dtmpmx=   6.1809E-01

== TH FLOW =====================================================================
 Step     21 Time=  4.50000E-01 Dt=  5.00000E-02 [y] snes_conv_reason:   11
  newton =   2 [      28] linear =   236 [      2932] cuts =  0 [   0]
  --> max chng: dpmx=   1.2552E+01 dtmpmx=   5.4540E-01

== TH FLOW =====================================================================
 Step     22 Time=  5.00000E-01 Dt=  5.00000E-02 [y] snes_conv_reason:    3
  newton =   1 [      29] linear =   116 [      3048] cuts =  0 [   0]
  --> max chng: dpmx=   1.0004E+01 dtmpmx=   4.5898E-01

== TH FLOW =====================================================================
 Step     23 Time=  5.50000E-01 Dt=  5.00000E-02 [y] snes_conv_reason:    3
  newton =   1 [      30] linear =   117 [      3165] cuts =  0 [   0]
  --> max chng: dpmx=   8.2699E+00 dtmpmx=   3.8352E-01

== TH FLOW =====================================================================
 Step     24 Time=  6.00000E-01 Dt=  5.00000E-02 [y] snes_conv_reason:    3
  newton =   1 [      31] linear =   118 [      3283] cuts =  0 [   0]
  --> max chng: dpmx=   7.0904E+00 dtmpmx=   3.6422E-01

== TH FLOW =====================================================================
 Step     25 Time=  6.50000E-01 Dt=  5.00000E-02 [y] snes_conv_reason:    3
  newton =   1 [      32] linear =   118 [      3401] cuts =  0 [   0]
  --> max chng: dpmx=   6.2056E+00 dtmpmx=   3.3672E-01

== TH FLOW =====================================================================
 Step     26 Time=  7.00000E-01 Dt=  5.00000E-02 [y] snes_conv_reason:    3
  newton =   1 [      33] linear =   119 [      3520] cuts =  0 [   0]
  --> max chng: dpmx=   5.5138E+00 dtmpmx=   3.0505E-01

== TH FLOW =====================================================================
 Step     27 Time=  7.50000E-01 Dt=  5.00000E-02 [y] snes_conv_reason:    3
  newton =   1 [      34] linear =   121 [      3641] cuts =  0 [   0]
  --> max chng: dpmx=   4.9579E+00 dtmpmx=   2.7242E-01

== TH FLOW =====================================================================
 Step     28 Time=  8.00000E-01 Dt=  5.00000E-02 [y] snes_conv_reason:    3
  newton =   1 [      35] linear =   123 [      3764] cuts =  0 [   0]
  --> max chng: dpmx=   4.5065E+00 dtmpmx=   2.6328E-01

== TH FLOW =====================================================================
 Step     29 Time=  8.50000E-01 Dt=  5.00000E-02 [y] snes_conv_reason:    3
  newton =   1 [      36] linear =   122 [      3886] cuts =  0 [   0]
  --> max chng: dpmx=   4.1267E+00 dtmpmx=   2.5245E-01

== TH FLOW =====================================================================
 Step     30 Time=  9.00000E-01 Dt=  5.00000E-02 [y] snes_conv_reason:    3
  newton =   1 [      37] linear =   120 [      4006] cuts =  0 [   0]
  --> max chng: dpmx=   3.8064E+00 dtmpmx=   2.3890E-01

== TH FLOW =====================================================================
 Step     31 Time=  9.50000E-01 Dt=  5.00000E-02 [y] snes_conv_reason:    3
  newton =   1 [      38] linear =   124 [      4130] cuts =  0 [   0]
  --> max chng: dpmx=   3.5301E+00 dtmpmx=   2.2362E-01

== TH FLOW =====================================================================
 Step     32 Time=  1.00000E+00 Dt=  5.00000E-02 [y] snes_conv_reason:    3
  newton =   1 [      39] linear =   122 [      4252] cuts =  0 [   0]
  --> max chng: dpmx=   3.2961E+00 dtmpmx=   2.0757E-01

== TH FLOW =====================================================================
 Step     33 Time=  1.05000E+00 Dt=  5.00000E-02 [y] snes_conv_reason:    3
  newton =   1 [      40] linear =   120 [      4372] cuts =  0 [   0]
  --> max chng: dpmx=   3.0891E+00 dtmpmx=   2.0106E-01

== TH FLOW =====================================================================
 Step     34 Time=  1.10000E+00 Dt=  5.00000E-02 [y] snes_conv_reason:    3
  newton =   1 [      41] linear =   120 [      4492] cuts =  0 [   0]
  --> max chng: dpmx=   2.9051E+00 dtmpmx=   1.9606E-01

== TH FLOW =====================================================================
 Step     35 Time=  1.15000E+00 Dt=  5.00000E-02 [y] snes_conv_reason:    3
  newton =   1 [      42] linear =   118 [      4610] cuts =  0 [   0]
  --> max chng: dpmx=   2.7398E+00 dtmpmx=   1.8955E-01

== TH FLOW =====================================================================
 Step     36 Time=  1.20000E+00 Dt=  5.00000E-02 [y] snes_conv_reason:    3
  newton =   1 [      43] linear =   121 [      4731] cuts =  0 [   0]
  --> max chng: dpmx=   2.5929E+00 dtmpmx=   1.8189E-01

== TH FLOW =====================================================================
 Step     37 Time=  1.25000E+00 Dt=  5.00000E-02 [y] snes_conv_reason:    3
  newton =   1 [      44] linear =   121 [      4852] cuts =  0 [   0]
  --> max chng: dpmx=   2.4573E+00 dtmpmx=   1.7337E-01

== TH FLOW =====================================================================
 Step     38 Time=  1.30000E+00 Dt=  5.00000E-02 [y] snes_conv_reason:    3
  newton =   1 [      45] linear =   121 [      4973] cuts =  0 [   0]
  --> max chng: dpmx=   2.3372E+00 dtmpmx=   1.6430E-01

== TH FLOW =====================================================================
 Step     39 Time=  1.35000E+00 Dt=  5.00000E-02 [y] snes_conv_reason:    3
  newton =   1 [      46] linear =   121 [      5094] cuts =  0 [   0]
  --> max chng: dpmx=   2.2273E+00 dtmpmx=   1.5857E-01

== TH FLOW =====================================================================
 Step     40 Time=  1.40000E+00 Dt=  5.00000E-02 [y] snes_conv_reason:    3
  newton =   1 [      47] linear =   109 [      5203] cuts =  0 [   0]
  --> max chng: dpmx=   2.1277E+00 dtmpmx=   1.5617E-01

== TH FLOW =====================================================================
 Step     41 Time=  1.45000E+00 Dt=  5.00000E-02 [y] snes_conv_reason:    3
  newton =   1 [      48] linear =   111 [      5314] cuts =  0 [   0]
  --> max chng: dpmx=   2.0351E+00 dtmpmx=   1.5291E-01

== TH FLOW =====================================================================
 Step     42 Time=  1.50000E+00 Dt=  5.00000E-02 [y] snes_conv_reason:    3
  newton =   1 [      49] linear =   113 [      5427] cuts =  0 [   0]
  --> max chng: dpmx=   1.9511E+00 dtmpmx=   1.4894E-01

== TH FLOW =====================================================================
 Step     43 Time=  1.55000E+00 Dt=  5.00000E-02 [y] snes_conv_reason:    3
  newton =   1 [      50] linear =   111 [      5538] cuts =  0 [   0]
  --> max chng: dpmx=   1.8733E+00 dtmpmx=   1.4439E-01

== TH FLOW =====================================================================
 Step     44 Time=  1.60000E+00 Dt=  5.00000E-02 [y] snes_conv_reason:    3
  newton =   1 [      51] linear =   112 [      5650] cuts =  0 [   0]
  --> max chng: dpmx=   1.8009E+00 dtmpmx=   1.3938E-01

== TH FLOW =====================================================================
 Step     45 Time=  1.65000E+00 Dt=  5.00000E-02 [y] snes_conv_reason:    3
  newton =   1 [      52] linear =   112 [      5762] cuts =  0 [   0]
  --> max chng: dpmx=   1.7350E+00 dtmpmx=   1.3401E-01

== TH FLOW =====================================================================
 Step     46 Time=  1.70000E+00 Dt=  5.00000E-02 [y] snes_conv_reason:    3
  newton =   1 [      53] linear =   115 [      5877] cuts =  0 [   0]
  --> max chng: dpmx=   1.6741E+00 dtmpmx=   1.3034E-01

== TH FLOW =====================================================================
 Step     47 Time=  1.75000E+00 Dt=  5.00000E-02 [y] snes_conv_reason:    3
  newton =   1 [      54] linear =   119 [      5996] cuts =  0 [   0]
  --> max chng: dpmx=   1.6162E+00 dtmpmx=   1.2872E-01

== TH FLOW =====================================================================
 Step     48 Time=  1.80000E+00 Dt=  5.00000E-02 [y] snes_conv_reason:    3
  newton =   1 [      55] linear =   122 [      6118] cuts =  0 [   0]
  --> max chng: dpmx=   1.5631E+00 dtmpmx=   1.2662E-01

== TH FLOW =====================================================================
 Step     49 Time=  1.85000E+00 Dt=  5.00000E-02 [y] snes_conv_reason:    3
  newton =   1 [      56] linear =   123 [      6241] cuts =  0 [   0]
  --> max chng: dpmx=   1.5144E+00 dtmpmx=   1.2408E-01

== TH FLOW =====================================================================
 Step     50 Time=  1.90000E+00 Dt=  5.00000E-02 [y] snes_conv_reason:    3
  newton =   1 [      57] linear =   121 [      6362] cuts =  0 [   0]
  --> max chng: dpmx=   1.4698E+00 dtmpmx=   1.2128E-01

== TH FLOW =====================================================================
 Step     51 Time=  1.95000E+00 Dt=  5.00000E-02 [y] snes_conv_reason:    3
  newton =   1 [      58] linear =   121 [      6483] cuts =  0 [   0]
  --> max chng: dpmx=   1.4282E+00 dtmpmx=   1.1841E-01

== TH FLOW =====================================================================
 Step     52 Time=  2.00000E+00 Dt=  5.00000E-02 [y] snes_conv_reason:    3
  newton =   1 [      59] linear =   122 [      6605] cuts =  0 [   0]
  --> max chng: dpmx=   1.3890E+00 dtmpmx=   1.1527E-01

== TH FLOW =====================================================================
 Step     53 Time=  2.05000E+00 Dt=  5.00000E-02 [y] snes_conv_reason:    3
  newton =   1 [      60] linear =   122 [      6727] cuts =  0 [   0]
  --> max chng: dpmx=   1.3517E+00 dtmpmx=   1.1191E-01

== TH FLOW =====================================================================
 Step     54 Time=  2.10000E+00 Dt=  5.00000E-02 [y] snes_conv_reason:    3
  newton =   1 [      61] linear =   122 [      6849] cuts =  0 [   0]
  --> max chng: dpmx=   1.3167E+00 dtmpmx=   1.0993E-01

== TH FLOW =====================================================================
 Step     55 Time=  2.15000E+00 Dt=  5.00000E-02 [y] snes_conv_reason:    3
  newton =   1 [      62] linear =   123 [      6972] cuts =  0 [   0]
  --> max chng: dpmx=   1.2837E+00 dtmpmx=   1.0878E-01

== TH FLOW =====================================================================
 Step     56 Time=  2.20000E+00 Dt=  5.00000E-02 [y] snes_conv_reason:    3
  newton =   1 [      63] linear =   123 [      7095] cuts =  0 [   0]
  --> max chng: dpmx=   1.2520E+00 dtmpmx=   1.0733E-01

== TH FLOW =====================================================================
 Step     57 Time=  2.25000E+00 Dt=  5.00000E-02 [y] snes_conv_reason:    3
  newton =   1 [      64] linear =   122 [      7217] cuts =  0 [   0]
  --> max chng: dpmx=   1.2280E+00 dtmpmx=   1.0562E-01

== TH FLOW =====================================================================
 Step     58 Time=  2.30000E+00 Dt=  5.00000E-02 [y] snes_conv_reason:    3
  newton =   1 [      65] linear =   123 [      7340] cuts =  0 [   0]
  --> max chng: dpmx=   1.2232E+00 dtmpmx=   1.0367E-01

== TH FLOW =====================================================================
 Step     59 Time=  2.35000E+00 Dt=  5.00000E-02 [y] snes_conv_reason:    3
  newton =   1 [      66] linear =   123 [      7463] cuts =  0 [   0]
  --> max chng: dpmx=   1.2208E+00 dtmpmx=   1.0158E-01

== TH FLOW =====================================================================
 Step     60 Time=  2.40000E+00 Dt=  5.00000E-02 [y] snes_conv_reason:    3
  newton =   1 [      67] linear =   124 [      7587] cuts =  0 [   0]
  --> max chng: dpmx=   1.2209E+00 dtmpmx=   9.9648E-02

== TH FLOW =====================================================================
 Step     61 Time=  2.45000E+00 Dt=  5.00000E-02 [y] snes_conv_reason:    3
  newton =   1 [      68] linear =   122 [      7709] cuts =  0 [   0]
  --> max chng: dpmx=   1.2209E+00 dtmpmx=   9.7547E-02

== TH FLOW =====================================================================
 Step     62 Time=  2.50000E+00 Dt=  5.00000E-02 [y] snes_conv_reason:    3
  newton =   1 [      69] linear =   122 [      7831] cuts =  0 [   0]
  --> max chng: dpmx=   1.2195E+00 dtmpmx=   9.5299E-02

== TH FLOW =====================================================================
 Step     63 Time=  2.55000E+00 Dt=  5.00000E-02 [y] snes_conv_reason:    3
  newton =   1 [      70] linear =   123 [      7954] cuts =  0 [   0]
  --> max chng: dpmx=   1.2175E+00 dtmpmx=   9.4353E-02

== TH FLOW =====================================================================
 Step     64 Time=  2.60000E+00 Dt=  5.00000E-02 [y] snes_conv_reason:    3
  newton =   1 [      71] linear =   123 [      8077] cuts =  0 [   0]
  --> max chng: dpmx=   1.2155E+00 dtmpmx=   9.3475E-02

== TH FLOW =====================================================================
 Step     65 Time=  2.65000E+00 Dt=  5.00000E-02 [y] snes_conv_reason:    3
  newton =   1 [      72] linear =   123 [      8200] cuts =  0 [   0]
  --> max chng: dpmx=   1.2119E+00 dtmpmx=   9.2410E-02

== TH FLOW =====================================================================
 Step     66 Time=  2.70000E+00 Dt=  5.00000E-02 [y] snes_conv_reason:    3
  newton =   1 [      73] linear =   123 [      8323] cuts =  0 [   0]
  --> max chng: dpmx=   1.2091E+00 dtmpmx=   9.1175E-02

== TH FLOW =====================================================================
 Step     67 Time=  2.75000E+00 Dt=  5.00000E-02 [y] snes_conv_reason:    3
  newton =   1 [      74] linear =   123 [      8446] cuts =  0 [   0]
  --> max chng: dpmx=   1.2091E+00 dtmpmx=   8.9786E-02

== TH FLOW =====================================================================
 Step     68 Time=  2.80000E+00 Dt=  5.00000E-02 [y] snes_conv_reason:    3
  newton =   1 [      75] linear =   126 [      8572] cuts =  0 [   0]
  --> max chng: dpmx=   1.2096E+00 dtmpmx=   8.8274E-02

== TH FLOW =====================================================================
 Step     69 Time=  2.85000E+00 Dt=  5.00000E-02 [y] snes_conv_reason:    3
  newton =   1 [      76] linear =   122 [      8694] cuts =  0 [   0]
  --> max chng: dpmx=   1.2093E+00 dtmpmx=   8.7003E-02

== TH FLOW =====================================================================
 Step     70 Time=  2.90000E+00 Dt=  5.00000E-02 [y] snes_conv_reason:    3
  newton =   1 [      77] linear =   124 [      8818] cuts =  0 [   0]
  --> max chng: dpmx=   1.2079E+00 dtmpmx=   8.5607E-02

== TH FLOW =====================================================================
 Step     71 Time=  2.95000E+00 Dt=  5.00000E-02 [y] snes_conv_reason:    3
  newton =   1 [      78] linear =   123 [      8941] cuts =  0 [   0]
  --> max chng: dpmx=   1.2061E+00 dtmpmx=   8.4099E-02

== TH FLOW =====================================================================
 Step     72 Time=  3.00000E+00 Dt=  5.00000E-02 [y] snes_conv_reason:    3
  newton =   1 [      79] linear =   125 [      9066] cuts =  0 [   0]
  --> max chng: dpmx=   1.2045E+00 dtmpmx=   8.2858E-02

== TH FLOW =====================================================================
 Step     73 Time=  3.05000E+00 Dt=  5.00000E-02 [y] snes_conv_reason:    3
  newton =   1 [      80] linear =   117 [      9183] cuts =  0 [   0]
  --> max chng: dpmx=   1.2016E+00 dtmpmx=   8.2272E-02

== TH FLOW =====================================================================
 Step     74 Time=  3.10000E+00 Dt=  5.00000E-02 [y] snes_conv_reason:    3
  newton =   1 [      81] linear =   117 [      9300] cuts =  0 [   0]
  --> max chng: dpmx=   1.2007E+00 dtmpmx=   8.1553E-02

== TH FLOW =====================================================================
 Step     75 Time=  3.15000E+00 Dt=  5.00000E-02 [y] snes_conv_reason:    3
  newton =   1 [      82] linear =   118 [      9418] cuts =  0 [   0]
  --> max chng: dpmx=   1.2016E+00 dtmpmx=   8.0712E-02

== TH FLOW =====================================================================
 Step     76 Time=  3.20000E+00 Dt=  5.00000E-02 [y] snes_conv_reason:    3
  newton =   1 [      83] linear =   117 [      9535] cuts =  0 [   0]
  --> max chng: dpmx=   1.2020E+00 dtmpmx=   7.9758E-02

== TH FLOW =====================================================================
 Step     77 Time=  3.25000E+00 Dt=  5.00000E-02 [y] snes_conv_reason:    3
  newton =   1 [      84] linear =   118 [      9653] cuts =  0 [   0]
  --> max chng: dpmx=   1.2010E+00 dtmpmx=   7.8701E-02

== TH FLOW =====================================================================
 Step     78 Time=  3.30000E+00 Dt=  5.00000E-02 [y] snes_conv_reason:    3
  newton =   1 [      85] linear =   119 [      9772] cuts =  0 [   0]
  --> max chng: dpmx=   1.2002E+00 dtmpmx=   7.7741E-02

== TH FLOW =====================================================================
 Step     79 Time=  3.35000E+00 Dt=  5.00000E-02 [y] snes_conv_reason:    3
  newton =   1 [      86] linear =   120 [      9892] cuts =  0 [   0]
  --> max chng: dpmx=   1.1989E+00 dtmpmx=   7.6829E-02

== TH FLOW =====================================================================
 Step     80 Time=  3.40000E+00 Dt=  5.00000E-02 [y] snes_conv_reason:    3
  newton =   1 [      87] linear =   119 [     10011] cuts =  0 [   0]
  --> max chng: dpmx=   1.1973E+00 dtmpmx=   7.5827E-02

== TH FLOW =====================================================================
 Step     81 Time=  3.45000E+00 Dt=  5.00000E-02 [y] snes_conv_reason:    3
  newton =   1 [      88] linear =   119 [     10130] cuts =  0 [   0]
  --> max chng: dpmx=   1.1942E+00 dtmpmx=   7.4743E-02

== TH FLOW =====================================================================
 Step     82 Time=  3.50000E+00 Dt=  5.00000E-02 [y] snes_conv_reason:    3
  newton =   1 [      89] linear =   118 [     10248] cuts =  0 [   0]
  --> max chng: dpmx=   1.1954E+00 dtmpmx=   7.3687E-02

== TH FLOW =====================================================================
 Step     83 Time=  3.55000E+00 Dt=  5.00000E-02 [y] snes_conv_reason:    3
  newton =   1 [      90] linear =   118 [     10366] cuts =  0 [   0]
  --> max chng: dpmx=   1.1963E+00 dtmpmx=   7.3240E-02

== TH FLOW =====================================================================
 Step     84 Time=  3.60000E+00 Dt=  5.00000E-02 [y] snes_conv_reason:    3
  newton =   1 [      91] linear =   121 [     10487] cuts =  0 [   0]
  --> max chng: dpmx=   1.1962E+00 dtmpmx=   7.2700E-02

== TH FLOW =====================================================================
 Step     85 Time=  3.65000E+00 Dt=  5.00000E-02 [y] snes_conv_reason:    3
  newton =   1 [      92] linear =   122 [     10609] cuts =  0 [   0]
  --> max chng: dpmx=   1.1959E+00 dtmpmx=   7.2071E-02

== TH FLOW =====================================================================
 Step     86 Time=  3.70000E+00 Dt=  5.00000E-02 [y] snes_conv_reason:    3
  newton =   1 [      93] linear =   122 [     10731] cuts =  0 [   0]
  --> max chng: dpmx=   1.1950E+00 dtmpmx=   7.1361E-02

== TH FLOW =====================================================================
 Step     87 Time=  3.75000E+00 Dt=  5.00000E-02 [y] snes_conv_reason:    3
  newton =   1 [      94] linear =   122 [     10853] cuts =  0 [   0]
  --> max chng: dpmx=   1.1940E+00 dtmpmx=   7.0574E-02

== TH FLOW =====================================================================
 Step     88 Time=  3.80000E+00 Dt=  5.00000E-02 [y] snes_conv_reason:    3
  newton =   1 [      95] linear =   122 [     10975] cuts =  0 [   0]
  --> max chng: dpmx=   1.1925E+00 dtmpmx=   6.9931E-02

== TH FLOW =====================================================================
 Step     89 Time=  3.85000E+00 Dt=  5.00000E-02 [y] snes_conv_reason:    3
  newton =   1 [      96] linear =   118 [     11093] cuts =  0 [   0]
  --> max chng: dpmx=   1.1904E+00 dtmpmx=   6.9285E-02

== TH FLOW =====================================================================
 Step     90 Time=  3.90000E+00 Dt=  5.00000E-02 [y] snes_conv_reason:    3
  newton =   1 [      97] linear =   123 [     11216] cuts =  0 [   0]
  --> max chng: dpmx=   1.1920E+00 dtmpmx=   6.8569E-02

== TH FLOW =====================================================================
 Step     91 Time=  3.95000E+00 Dt=  5.00000E-02 [y] snes_conv_reason:    3
  newton =   1 [      98] linear =   122 [     11338] cuts =  0 [   0]
  --> max chng: dpmx=   1.1916E+00 dtmpmx=   6.7788E-02

== TH FLOW =====================================================================
 Step     92 Time=  4.00000E+00 Dt=  5.00000E-02 [y] snes_conv_reason:    3
  newton =   1 [      99] linear =   122 [     11460] cuts =  0 [   0]
  --> max chng: dpmx=   1.1927E+00 dtmpmx=   6.6947E-02

== TH FLOW =====================================================================
 Step     93 Time=  4.05000E+00 Dt=  5.00000E-02 [y] snes_conv_reason:    3
  newton =   1 [     100] linear =   122 [     11582] cuts =  0 [   0]
  --> max chng: dpmx=   1.1921E+00 dtmpmx=   6.6267E-02

== TH FLOW =====================================================================
 Step     94 Time=  4.10000E+00 Dt=  5.00000E-02 [y] snes_conv_reason:    3
  newton =   1 [     101] linear =   122 [     11704] cuts =  0 [   0]
  --> max chng: dpmx=   1.1917E+00 dtmpmx=   6.5880E-02

== TH FLOW =====================================================================
 Step     95 Time=  4.15000E+00 Dt=  5.00000E-02 [y] snes_conv_reason:    3
  newton =   1 [     102] linear =   122 [     11826] cuts =  0 [   0]
  --> max chng: dpmx=   1.1909E+00 dtmpmx=   6.5426E-02

== TH FLOW =====================================================================
 Step     96 Time=  4.20000E+00 Dt=  5.00000E-02 [y] snes_conv_reason:    3
  newton =   1 [     103] linear =   122 [     11948] cuts =  0 [   0]
  --> max chng: dpmx=   1.1895E+00 dtmpmx=   6.4908E-02

== TH FLOW =====================================================================
 Step     97 Time=  4.25000E+00 Dt=  5.00000E-02 [y] snes_conv_reason:    3
  newton =   1 [     104] linear =   123 [     12071] cuts =  0 [   0]
  --> max chng: dpmx=   1.1884E+00 dtmpmx=   6.4330E-02

== TH FLOW =====================================================================
 Step     98 Time=  4.30000E+00 Dt=  5.00000E-02 [y] snes_conv_reason:    3
  newton =   1 [     105] linear =   122 [     12193] cuts =  0 [   0]
  --> max chng: dpmx=   1.1892E+00 dtmpmx=   6.3855E-02

== TH FLOW =====================================================================
 Step     99 Time=  4.35000E+00 Dt=  5.00000E-02 [y] snes_conv_reason:    3
  newton =   1 [     106] linear =   122 [     12315] cuts =  0 [   0]
  --> max chng: dpmx=   1.1891E+00 dtmpmx=   6.3405E-02

== TH FLOW =====================================================================
 Step    100 Time=  4.40000E+00 Dt=  5.00000E-02 [y] snes_conv_reason:    3
  newton =   1 [     107] linear =   122 [     12437] cuts =  0 [   0]
  --> max chng: dpmx=   1.1902E+00 dtmpmx=   6.2898E-02

== TH FLOW =====================================================================
 Step    101 Time=  4.45000E+00 Dt=  5.00000E-02 [y] snes_conv_reason:    3
  newton =   1 [     108] linear =   120 [     12557] cuts =  0 [   0]
  --> max chng: dpmx=   1.1896E+00 dtmpmx=   6.2339E-02

== TH FLOW =====================================================================
 Step    102 Time=  4.50000E+00 Dt=  5.00000E-02 [y] snes_conv_reason:    3
  newton =   1 [     109] linear =   122 [     12679] cuts =  0 [   0]
  --> max chng: dpmx=   1.1896E+00 dtmpmx=   6.1729E-02

== TH FLOW =====================================================================
 Step    103 Time=  4.55000E+00 Dt=  5.00000E-02 [y] snes_conv_reason:    3
  newton =   1 [     110] linear =   122 [     12801] cuts =  0 [   0]
  --> max chng: dpmx=   1.1892E+00 dtmpmx=   6.1072E-02

== TH FLOW =====================================================================
 Step    104 Time=  4.60000E+00 Dt=  5.00000E-02 [y] snes_conv_reason:    3
  newton =   1 [     111] linear =   120 [     12921] cuts =  0 [   0]
  --> max chng: dpmx=   1.1879E+00 dtmpmx=   6.0467E-02

== TH FLOW =====================================================================
 Step    105 Time=  4.65000E+00 Dt=  5.00000E-02 [y] snes_conv_reason:    3
  newton =   1 [     112] linear =   122 [     13043] cuts =  0 [   0]
  --> max chng: dpmx=   1.1873E+00 dtmpmx=   6.0123E-02

== TH FLOW =====================================================================
 Step    106 Time=  4.70000E+00 Dt=  5.00000E-02 [y] snes_conv_reason:    3
  newton =   1 [     113] linear =   122 [     13165] cuts =  0 [   0]
  --> max chng: dpmx=   1.1874E+00 dtmpmx=   5.9755E-02

== TH FLOW =====================================================================
 Step    107 Time=  4.75000E+00 Dt=  5.00000E-02 [y] snes_conv_reason:    3
  newton =   1 [     114] linear =   122 [     13287] cuts =  0 [   0]
  --> max chng: dpmx=   1.1879E+00 dtmpmx=   5.9337E-02

== TH FLOW =====================================================================
 Step    108 Time=  4.80000E+00 Dt=  5.00000E-02 [y] snes_conv_reason:    3
  newton =   1 [     115] linear =   122 [     13409] cuts =  0 [   0]
  --> max chng: dpmx=   1.1885E+00 dtmpmx=   5.8942E-02

== TH FLOW =====================================================================
 Step    109 Time=  4.85000E+00 Dt=  5.00000E-02 [y] snes_conv_reason:    3
  newton =   1 [     116] linear =   123 [     13532] cuts =  0 [   0]
  --> max chng: dpmx=   1.1883E+00 dtmpmx=   5.8639E-02

== TH FLOW =====================================================================
 Step    110 Time=  4.90000E+00 Dt=  5.00000E-02 [y] snes_conv_reason:    3
  newton =   1 [     117] linear =   122 [     13654] cuts =  0 [   0]
  --> max chng: dpmx=   1.1884E+00 dtmpmx=   5.8289E-02

== TH FLOW =====================================================================
 Step    111 Time=  4.95000E+00 Dt=  5.00000E-02 [y] snes_conv_reason:    3
  newton =   1 [     118] linear =   124 [     13778] cuts =  0 [   0]
  --> max chng: dpmx=   1.1876E+00 dtmpmx=   5.7893E-02

== TH FLOW =====================================================================
 Step    112 Time=  5.00000E+00 Dt=  5.00000E-02 [y] snes_conv_reason:    3
  newton =   1 [     119] linear =   122 [     13900] cuts =  0 [   0]
  --> max chng: dpmx=   1.1877E+00 dtmpmx=   5.7456E-02

== TH FLOW =====================================================================
 Step    113 Time=  5.05000E+00 Dt=  5.00000E-02 [y] snes_conv_reason:    3
  newton =   1 [     120] linear =   123 [     14023] cuts =  0 [   0]
  --> max chng: dpmx=   1.1864E+00 dtmpmx=   5.6977E-02

== TH FLOW =====================================================================
 Step    114 Time=  5.10000E+00 Dt=  5.00000E-02 [y] snes_conv_reason:    3
  newton =   1 [     121] linear =   124 [     14147] cuts =  0 [   0]
  --> max chng: dpmx=   1.1864E+00 dtmpmx=   5.6461E-02

== TH FLOW =====================================================================
 Step    115 Time=  5.15000E+00 Dt=  5.00000E-02 [y] snes_conv_reason:    3
  newton =   1 [     122] linear =   122 [     14269] cuts =  0 [   0]
  --> max chng: dpmx=   1.1870E+00 dtmpmx=   5.5998E-02

== TH FLOW =====================================================================
 Step    116 Time=  5.20000E+00 Dt=  5.00000E-02 [y] snes_conv_reason:    3
  newton =   1 [     123] linear =   122 [     14391] cuts =  0 [   0]
  --> max chng: dpmx=   1.1874E+00 dtmpmx=   5.5716E-02

== TH FLOW =====================================================================
 Step    117 Time=  5.25000E+00 Dt=  5.00000E-02 [y] snes_conv_reason:    3
  newton =   1 [     124] linear =   119 [     14510] cuts =  0 [   0]
  --> max chng: dpmx=   1.1878E+00 dtmpmx=   5.5393E-02

== TH FLOW =====================================================================
 Step    118 Time=  5.30000E+00 Dt=  5.00000E-02 [y] snes_conv_reason:    3
  newton =   1 [     125] linear =   119 [     14629] cuts =  0 [   0]
  --> max chng: dpmx=   1.1874E+00 dtmpmx=   5.5033E-02

== TH FLOW =====================================================================
 Step    119 Time=  5.35000E+00 Dt=  5.00000E-02 [y] snes_conv_reason:    3
  newton =   1 [     126] linear =   119 [     14748] cuts =  0 [   0]
  --> max chng: dpmx=   1.1872E+00 dtmpmx=   5.4658E-02

== TH FLOW =====================================================================
 Step    120 Time=  5.40000E+00 Dt=  5.00000E-02 [y] snes_conv_reason:    3
  newton =   1 [     127] linear =   118 [     14866] cuts =  0 [   0]
  --> max chng: dpmx=   1.1870E+00 dtmpmx=   5.4426E-02

== TH FLOW =====================================================================
 Step    121 Time=  5.45000E+00 Dt=  5.00000E-02 [y] snes_conv_reason:    3
  newton =   1 [     128] linear =   118 [     14984] cuts =  0 [   0]
  --> max chng: dpmx=   1.1860E+00 dtmpmx=   5.4155E-02

== TH FLOW =====================================================================
 Step    122 Time=  5.50000E+00 Dt=  5.00000E-02 [y] snes_conv_reason:    3
  newton =   1 [     129] linear =   117 [     15101] cuts =  0 [   0]
  --> max chng: dpmx=   1.1865E+00 dtmpmx=   5.3847E-02

== TH FLOW =====================================================================
 Step    123 Time=  5.55000E+00 Dt=  5.00000E-02 [y] snes_conv_reason:    3
  newton =   1 [     130] linear =   124 [     15225] cuts =  0 [   0]
  --> max chng: dpmx=   1.1863E+00 dtmpmx=   5.3505E-02

== TH FLOW =====================================================================
 Step    124 Time=  5.60000E+00 Dt=  5.00000E-02 [y] snes_conv_reason:    3
  newton =   1 [     131] linear =   125 [     15350] cuts =  0 [   0]
  --> max chng: dpmx=   1.1866E+00 dtmpmx=   5.3128E-02

== TH FLOW =====================================================================
 Step    125 Time=  5.65000E+00 Dt=  5.00000E-02 [y] snes_conv_reason:    3
  newton =   1 [     132] linear =   125 [     15475] cuts =  0 [   0]
  --> max chng: dpmx=   1.1872E+00 dtmpmx=   5.2719E-02

== TH FLOW =====================================================================
 Step    126 Time=  5.70000E+00 Dt=  5.00000E-02 [y] snes_conv_reason:    3
  newton =   1 [     133] linear =   123 [     15598] cuts =  0 [   0]
  --> max chng: dpmx=   1.1874E+00 dtmpmx=   5.2321E-02

== TH FLOW =====================================================================
 Step    127 Time=  5.75000E+00 Dt=  5.00000E-02 [y] snes_conv_reason:    3
  newton =   1 [     134] linear =   123 [     15721] cuts =  0 [   0]
  --> max chng: dpmx=   1.1871E+00 dtmpmx=   5.2111E-02

== TH FLOW =====================================================================
 Step    128 Time=  5.80000E+00 Dt=  5.00000E-02 [y] snes_conv_reason:    3
  newton =   1 [     135] linear =   123 [     15844] cuts =  0 [   0]
  --> max chng: dpmx=   1.1867E+00 dtmpmx=   5.1868E-02

== TH FLOW =====================================================================
 Step    129 Time=  5.85000E+00 Dt=  5.00000E-02 [y] snes_conv_reason:    3
  newton =   1 [     136] linear =   123 [     15967] cuts =  0 [   0]
  --> max chng: dpmx=   1.1863E+00 dtmpmx=   5.1593E-02

== TH FLOW =====================================================================
 Step    130 Time=  5.90000E+00 Dt=  5.00000E-02 [y] snes_conv_reason:    3
  newton =   1 [     137] linear =   122 [     16089] cuts =  0 [   0]
  --> max chng: dpmx=   1.1859E+00 dtmpmx=   5.1286E-02

== TH FLOW =====================================================================
 Step    131 Time=  5.95000E+00 Dt=  5.00000E-02 [y] snes_conv_reason:    3
  newton =   1 [     138] linear =   123 [     16212] cuts =  0 [   0]
  --> max chng: dpmx=   1.1859E+00 dtmpmx=   5.0950E-02

== TH FLOW =====================================================================
 Step    132 Time=  6.00000E+00 Dt=  5.00000E-02 [y] snes_conv_reason:    3
  newton =   1 [     139] linear =   124 [     16336] cuts =  0 [   0]
  --> max chng: dpmx=   1.1868E+00 dtmpmx=   5.0730E-02

== TH FLOW =====================================================================
 Step    133 Time=  6.05000E+00 Dt=  5.00000E-02 [y] snes_conv_reason:    3
  newton =   1 [     140] linear =   124 [     16460] cuts =  0 [   0]
  --> max chng: dpmx=   1.1868E+00 dtmpmx=   5.0492E-02

== TH FLOW =====================================================================
 Step    134 Time=  6.10000E+00 Dt=  5.00000E-02 [y] snes_conv_reason:    3
  newton =   1 [     141] linear =   124 [     16584] cuts =  0 [   0]
  --> max chng: dpmx=   1.1870E+00 dtmpmx=   5.0224E-02

== TH FLOW =====================================================================
 Step    135 Time=  6.15000E+00 Dt=  5.00000E-02 [y] snes_conv_reason:    3
  newton =   1 [     142] linear =   125 [     16709] cuts =  0 [   0]
  --> max chng: dpmx=   1.1870E+00 dtmpmx=   4.9927E-02

== TH FLOW =====================================================================
 Step    136 Time=  6.20000E+00 Dt=  5.00000E-02 [y] snes_conv_reason:    3
  newton =   1 [     143] linear =   124 [     16833] cuts =  0 [   0]
  --> max chng: dpmx=   1.1867E+00 dtmpmx=   4.9603E-02

== TH FLOW =====================================================================
 Step    137 Time=  6.25000E+00 Dt=  5.00000E-02 [y] snes_conv_reason:    3
  newton =   1 [     144] linear =   122 [     16955] cuts =  0 [   0]
  --> max chng: dpmx=   1.1872E+00 dtmpmx=   4.9252E-02

== TH FLOW =====================================================================
 Step    138 Time=  6.30000E+00 Dt=  5.00000E-02 [y] snes_conv_reason:    3
  newton =   1 [     145] linear =   121 [     17076] cuts =  0 [   0]
  --> max chng: dpmx=   1.1857E+00 dtmpmx=   4.9075E-02

== TH FLOW =====================================================================
 Step    139 Time=  6.35000E+00 Dt=  5.00000E-02 [y] snes_conv_reason:    3
  newton =   1 [     146] linear =   120 [     17196] cuts =  0 [   0]
  --> max chng: dpmx=   1.1860E+00 dtmpmx=   4.8893E-02

== TH FLOW =====================================================================
 Step    140 Time=  6.40000E+00 Dt=  5.00000E-02 [y] snes_conv_reason:    3
  newton =   1 [     147] linear =   123 [     17319] cuts =  0 [   0]
  --> max chng: dpmx=   1.1864E+00 dtmpmx=   4.8684E-02

== TH FLOW =====================================================================
 Step    141 Time=  6.45000E+00 Dt=  5.00000E-02 [y] snes_conv_reason:    3
  newton =   1 [     148] linear =   123 [     17442] cuts =  0 [   0]
  --> max chng: dpmx=   1.1867E+00 dtmpmx=   4.8447E-02

== TH FLOW =====================================================================
 Step    142 Time=  6.50000E+00 Dt=  5.00000E-02 [y] snes_conv_reason:    3
  newton =   1 [     149] linear =   121 [     17563] cuts =  0 [   0]
  --> max chng: dpmx=   1.1869E+00 dtmpmx=   4.8185E-02

== TH FLOW =====================================================================
 Step    143 Time=  6.55000E+00 Dt=  5.00000E-02 [y] snes_conv_reason:    3
  newton =   1 [     150] linear =   122 [     17685] cuts =  0 [   0]
  --> max chng: dpmx=   1.1870E+00 dtmpmx=   4.7898E-02

== TH FLOW =====================================================================
 Step    144 Time=  6.60000E+00 Dt=  5.00000E-02 [y] snes_conv_reason:    3
  newton =   1 [     151] linear =   122 [     17807] cuts =  0 [   0]
  --> max chng: dpmx=   1.1870E+00 dtmpmx=   4.7651E-02

== TH FLOW =====================================================================
 Step    145 Time=  6.65000E+00 Dt=  5.00000E-02 [y] snes_conv_reason:    3
  newton =   1 [     152] linear =   122 [     17929] cuts =  0 [   0]
  --> max chng: dpmx=   1.1869E+00 dtmpmx=   4.7442E-02

== TH FLOW =====================================================================
 Step    146 Time=  6.70000E+00 Dt=  5.00000E-02 [y] snes_conv_reason:    3
  newton =   1 [     153] linear =   105 [     18034] cuts =  0 [   0]
  --> max chng: dpmx=   1.1867E+00 dtmpmx=   4.7208E-02

== TH FLOW =====================================================================
 Step    147 Time=  6.75000E+00 Dt=  5.00000E-02 [y] snes_conv_reason:    3
  newton =   1 [     154] linear =   107 [     18141] cuts =  0 [   0]
  --> max chng: dpmx=   1.1863E+00 dtmpmx=   4.6951E-02

== TH FLOW =====================================================================
 Step    148 Time=  6.80000E+00 Dt=  5.00000E-02 [y] snes_conv_reason:    3
  newton =   1 [     155] linear =   122 [     18263] cuts =  0 [   0]
  --> max chng: dpmx=   1.1858E+00 dtmpmx=   4.6670E-02

== TH FLOW =====================================================================
 Step    149 Time=  6.85000E+00 Dt=  5.00000E-02 [y] snes_conv_reason:    3
  newton =   1 [     156] linear =   121 [     18384] cuts =  0 [   0]
  --> max chng: dpmx=   1.1867E+00 dtmpmx=   4.6469E-02

== TH FLOW =====================================================================
 Step    150 Time=  6.90000E+00 Dt=  5.00000E-02 [y] snes_conv_reason:    3
  newton =   1 [     157] linear =   121 [     18505] cuts =  0 [   0]
  --> max chng: dpmx=   1.1869E+00 dtmpmx=   4.6336E-02

== TH FLOW =====================================================================
 Step    151 Time=  6.95000E+00 Dt=  5.00000E-02 [y] snes_conv_reason:    3
  newton =   1 [     158] linear =   121 [     18626] cuts =  0 [   0]
  --> max chng: dpmx=   1.1871E+00 dtmpmx=   4.6179E-02

== TH FLOW =====================================================================
 Step    152 Time=  7.00000E+00 Dt=  5.00000E-02 [y] snes_conv_reason:    3
  newton =   1 [     159] linear =   122 [     18748] cuts =  0 [   0]
  --> max chng: dpmx=   1.1870E+00 dtmpmx=   4.5998E-02

== TH FLOW =====================================================================
 Step    153 Time=  7.05000E+00 Dt=  5.00000E-02 [y] snes_conv_reason:    3
  newton =   1 [     160] linear =   121 [     18869] cuts =  0 [   0]
  --> max chng: dpmx=   1.1872E+00 dtmpmx=   4.5794E-02

== TH FLOW =====================================================================
 Step    154 Time=  7.10000E+00 Dt=  5.00000E-02 [y] snes_conv_reason:    3
  newton =   1 [     161] linear =   122 [     18991] cuts =  0 [   0]
  --> max chng: dpmx=   1.1867E+00 dtmpmx=   4.5569E-02

== TH FLOW =====================================================================
 Step    155 Time=  7.15000E+00 Dt=  5.00000E-02 [y] snes_conv_reason:    3
  newton =   1 [     162] linear =   121 [     19112] cuts =  0 [   0]
  --> max chng: dpmx=   1.1864E+00 dtmpmx=   4.5322E-02

== TH FLOW =====================================================================
 Step    156 Time=  7.20000E+00 Dt=  5.00000E-02 [y] snes_conv_reason:    3
  newton =   1 [     163] linear =   123 [     19235] cuts =  0 [   0]
  --> max chng: dpmx=   1.1861E+00 dtmpmx=   4.5054E-02

== TH FLOW =====================================================================
 Step    157 Time=  7.25000E+00 Dt=  5.00000E-02 [y] snes_conv_reason:    3
  newton =   1 [     164] linear =   122 [     19357] cuts =  0 [   0]
  --> max chng: dpmx=   1.1864E+00 dtmpmx=   4.4859E-02

== TH FLOW =====================================================================
 Step    158 Time=  7.30000E+00 Dt=  5.00000E-02 [y] snes_conv_reason:    3
  newton =   1 [     165] linear =   122 [     19479] cuts =  0 [   0]
  --> max chng: dpmx=   1.1866E+00 dtmpmx=   4.4655E-02

== TH FLOW =====================================================================
 Step    159 Time=  7.35000E+00 Dt=  5.00000E-02 [y] snes_conv_reason:    3
  newton =   1 [     166] linear =   123 [     19602] cuts =  0 [   0]
  --> max chng: dpmx=   1.1867E+00 dtmpmx=   4.4430E-02

== TH FLOW =====================================================================
 Step    160 Time=  7.40000E+00 Dt=  5.00000E-02 [y] snes_conv_reason:    3
  newton =   1 [     167] linear =   123 [     19725] cuts =  0 [   0]
  --> max chng: dpmx=   1.1870E+00 dtmpmx=   4.4242E-02

== TH FLOW =====================================================================
 Step    161 Time=  7.45000E+00 Dt=  5.00000E-02 [y] snes_conv_reason:    3
  newton =   1 [     168] linear =   121 [     19846] cuts =  0 [   0]
  --> max chng: dpmx=   1.1871E+00 dtmpmx=   4.4117E-02

== TH FLOW =====================================================================
 Step    162 Time=  7.50000E+00 Dt=  5.00000E-02 [y] snes_conv_reason:    3
  newton =   1 [     169] linear =   121 [     19967] cuts =  0 [   0]
  --> max chng: dpmx=   1.1870E+00 dtmpmx=   4.3990E-02

== TH FLOW =====================================================================
 Step    163 Time=  7.55000E+00 Dt=  5.00000E-02 [y] snes_conv_reason:    3
  newton =   1 [     170] linear =   123 [     20090] cuts =  0 [   0]
  --> max chng: dpmx=   1.1867E+00 dtmpmx=   4.3853E-02

== TH FLOW =====================================================================
 Step    164 Time=  7.60000E+00 Dt=  5.00000E-02 [y] snes_conv_reason:    3
  newton =   1 [     171] linear =   124 [     20214] cuts =  0 [   0]
  --> max chng: dpmx=   1.1864E+00 dtmpmx=   4.3697E-02

== TH FLOW =====================================================================
 Step    165 Time=  7.65000E+00 Dt=  5.00000E-02 [y] snes_conv_reason:    3
  newton =   1 [     172] linear =   120 [     20334] cuts =  0 [   0]
  --> max chng: dpmx=   1.1861E+00 dtmpmx=   4.3520E-02

== TH FLOW =====================================================================
 Step    166 Time=  7.70000E+00 Dt=  5.00000E-02 [y] snes_conv_reason:    3
  newton =   1 [     173] linear =   120 [     20454] cuts =  0 [   0]
  --> max chng: dpmx=   1.1861E+00 dtmpmx=   4.3325E-02

== TH FLOW =====================================================================
 Step    167 Time=  7.75000E+00 Dt=  5.00000E-02 [y] snes_conv_reason:    3
  newton =   1 [     174] linear =   120 [     20574] cuts =  0 [   0]
  --> max chng: dpmx=   1.1864E+00 dtmpmx=   4.3111E-02

== TH FLOW =====================================================================
 Step    168 Time=  7.80000E+00 Dt=  5.00000E-02 [y] snes_conv_reason:    3
  newton =   1 [     175] linear =   121 [     20695] cuts =  0 [   0]
  --> max chng: dpmx=   1.1868E+00 dtmpmx=   4.2878E-02

== TH FLOW =====================================================================
 Step    169 Time=  7.85000E+00 Dt=  5.00000E-02 [y] snes_conv_reason:    3
  newton =   1 [     176] linear =   125 [     20820] cuts =  0 [   0]
  --> max chng: dpmx=   1.1871E+00 dtmpmx=   4.2639E-02

== TH FLOW =====================================================================
 Step    170 Time=  7.90000E+00 Dt=  5.00000E-02 [y] snes_conv_reason:    3
  newton =   1 [     177] linear =   121 [     20941] cuts =  0 [   0]
  --> max chng: dpmx=   1.1867E+00 dtmpmx=   4.2460E-02

== TH FLOW =====================================================================
 Step    171 Time=  7.95000E+00 Dt=  5.00000E-02 [y] snes_conv_reason:    3
  newton =   1 [     178] linear =   121 [     21062] cuts =  0 [   0]
  --> max chng: dpmx=   1.1869E+00 dtmpmx=   4.2283E-02

== TH FLOW =====================================================================
 Step    172 Time=  8.00000E+00 Dt=  5.00000E-02 [y] snes_conv_reason:    3
  newton =   1 [     179] linear =   120 [     21182] cuts =  0 [   0]
  --> max chng: dpmx=   1.1866E+00 dtmpmx=   4.2194E-02

== TH FLOW =====================================================================
 Step    173 Time=  8.05000E+00 Dt=  5.00000E-02 [y] snes_conv_reason:    3
  newton =   1 [     180] linear =   117 [     21299] cuts =  0 [   0]
  --> max chng: dpmx=   1.1864E+00 dtmpmx=   4.2086E-02

== TH FLOW =====================================================================
 Step    174 Time=  8.10000E+00 Dt=  5.00000E-02 [y] snes_conv_reason:    3
  newton =   1 [     181] linear =   117 [     21416] cuts =  0 [   0]
  --> max chng: dpmx=   1.1862E+00 dtmpmx=   4.1960E-02

== TH FLOW =====================================================================
 Step    175 Time=  8.15000E+00 Dt=  5.00000E-02 [y] snes_conv_reason:    3
  newton =   1 [     182] linear =   121 [     21537] cuts =  0 [   0]
  --> max chng: dpmx=   1.1863E+00 dtmpmx=   4.1834E-02

== TH FLOW =====================================================================
 Step    176 Time=  8.20000E+00 Dt=  5.00000E-02 [y] snes_conv_reason:    3
  newton =   1 [     183] linear =   121 [     21658] cuts =  0 [   0]
  --> max chng: dpmx=   1.1865E+00 dtmpmx=   4.1698E-02

== TH FLOW =====================================================================
 Step    177 Time=  8.25000E+00 Dt=  5.00000E-02 [y] snes_conv_reason:    3
  newton =   1 [     184] linear =   121 [     21779] cuts =  0 [   0]
  --> max chng: dpmx=   1.1866E+00 dtmpmx=   4.1544E-02

== TH FLOW =====================================================================
 Step    178 Time=  8.30000E+00 Dt=  5.00000E-02 [y] snes_conv_reason:    3
  newton =   1 [     185] linear =   118 [     21897] cuts =  0 [   0]
  --> max chng: dpmx=   1.1866E+00 dtmpmx=   4.1374E-02

== TH FLOW =====================================================================
 Step    179 Time=  8.35000E+00 Dt=  5.00000E-02 [y] snes_conv_reason:    3
  newton =   1 [     186] linear =   123 [     22020] cuts =  0 [   0]
  --> max chng: dpmx=   1.1864E+00 dtmpmx=   4.1187E-02

== TH FLOW =====================================================================
 Step    180 Time=  8.40000E+00 Dt=  5.00000E-02 [y] snes_conv_reason:    3
  newton =   1 [     187] linear =   123 [     22143] cuts =  0 [   0]
  --> max chng: dpmx=   1.1869E+00 dtmpmx=   4.0984E-02

== TH FLOW =====================================================================
 Step    181 Time=  8.45000E+00 Dt=  5.00000E-02 [y] snes_conv_reason:    3
  newton =   1 [     188] linear =   123 [     22266] cuts =  0 [   0]
  --> max chng: dpmx=   1.1863E+00 dtmpmx=   4.0766E-02

== TH FLOW =====================================================================
 Step    182 Time=  8.50000E+00 Dt=  5.00000E-02 [y] snes_conv_reason:    3
  newton =   1 [     189] linear =   122 [     22388] cuts =  0 [   0]
  --> max chng: dpmx=   1.1860E+00 dtmpmx=   4.0549E-02

== TH FLOW =====================================================================
 Step    183 Time=  8.55000E+00 Dt=  5.00000E-02 [y] snes_conv_reason:    3
  newton =   1 [     190] linear =   119 [     22507] cuts =  0 [   0]
  --> max chng: dpmx=   1.1856E+00 dtmpmx=   4.0470E-02

== TH FLOW =====================================================================
 Step    184 Time=  8.60000E+00 Dt=  5.00000E-02 [y] snes_conv_reason:    3
  newton =   1 [     191] linear =   119 [     22626] cuts =  0 [   0]
  --> max chng: dpmx=   1.1857E+00 dtmpmx=   4.0393E-02

== TH FLOW =====================================================================
 Step    185 Time=  8.65000E+00 Dt=  5.00000E-02 [y] snes_conv_reason:    3
  newton =   1 [     192] linear =   122 [     22748] cuts =  0 [   0]
  --> max chng: dpmx=   1.1862E+00 dtmpmx=   4.0300E-02

== TH FLOW =====================================================================
 Step    186 Time=  8.70000E+00 Dt=  5.00000E-02 [y] snes_conv_reason:    3
  newton =   1 [     193] linear =   119 [     22867] cuts =  0 [   0]
  --> max chng: dpmx=   1.1862E+00 dtmpmx=   4.0190E-02

== TH FLOW =====================================================================
 Step    187 Time=  8.75000E+00 Dt=  5.00000E-02 [y] snes_conv_reason:    3
  newton =   1 [     194] linear =   119 [     22986] cuts =  0 [   0]
  --> max chng: dpmx=   1.1868E+00 dtmpmx=   4.0065E-02

== TH FLOW =====================================================================
 Step    188 Time=  8.80000E+00 Dt=  5.00000E-02 [y] snes_conv_reason:    3
  newton =   1 [     195] linear =   119 [     23105] cuts =  0 [   0]
  --> max chng: dpmx=   1.1862E+00 dtmpmx=   3.9941E-02

== TH FLOW =====================================================================
 Step    189 Time=  8.85000E+00 Dt=  5.00000E-02 [y] snes_conv_reason:    3
  newton =   1 [     196] linear =   120 [     23225] cuts =  0 [   0]
  --> max chng: dpmx=   1.1861E+00 dtmpmx=   3.9807E-02

== TH FLOW =====================================================================
 Step    190 Time=  8.90000E+00 Dt=  5.00000E-02 [y] snes_conv_reason:    3
  newton =   1 [     197] linear =   119 [     23344] cuts =  0 [   0]
  --> max chng: dpmx=   1.1859E+00 dtmpmx=   3.9657E-02

== TH FLOW =====================================================================
 Step    191 Time=  8.95000E+00 Dt=  5.00000E-02 [y] snes_conv_reason:    3
  newton =   1 [     198] linear =   122 [     23466] cuts =  0 [   0]
  --> max chng: dpmx=   1.1856E+00 dtmpmx=   3.9493E-02

== TH FLOW =====================================================================
 Step    192 Time=  9.00000E+00 Dt=  5.00000E-02 [y] snes_conv_reason:    3
  newton =   1 [     199] linear =   122 [     23588] cuts =  0 [   0]
  --> max chng: dpmx=   1.1850E+00 dtmpmx=   3.9315E-02

== TH FLOW =====================================================================
 Step    193 Time=  9.05000E+00 Dt=  5.00000E-02 [y] snes_conv_reason:    3
  newton =   1 [     200] linear =   123 [     23711] cuts =  0 [   0]
  --> max chng: dpmx=   1.1857E+00 dtmpmx=   3.9123E-02

== TH FLOW =====================================================================
 Step    194 Time=  9.10000E+00 Dt=  5.00000E-02 [y] snes_conv_reason:    3
  newton =   1 [     201] linear =   122 [     23833] cuts =  0 [   0]
  --> max chng: dpmx=   1.1859E+00 dtmpmx=   3.8918E-02

== TH FLOW =====================================================================
 Step    195 Time=  9.15000E+00 Dt=  5.00000E-02 [y] snes_conv_reason:    3
  newton =   1 [     202] linear =   122 [     23955] cuts =  0 [   0]
  --> max chng: dpmx=   1.1857E+00 dtmpmx=   3.8861E-02

== TH FLOW =====================================================================
 Step    196 Time=  9.20000E+00 Dt=  5.00000E-02 [y] snes_conv_reason:    3
  newton =   1 [     203] linear =   122 [     24077] cuts =  0 [   0]
  --> max chng: dpmx=   1.1858E+00 dtmpmx=   3.8795E-02

== TH FLOW =====================================================================
 Step    197 Time=  9.25000E+00 Dt=  5.00000E-02 [y] snes_conv_reason:    3
  newton =   1 [     204] linear =   122 [     24199] cuts =  0 [   0]
  --> max chng: dpmx=   1.1857E+00 dtmpmx=   3.8713E-02

== TH FLOW =====================================================================
 Step    198 Time=  9.30000E+00 Dt=  5.00000E-02 [y] snes_conv_reason:    3
  newton =   1 [     205] linear =   122 [     24321] cuts =  0 [   0]
  --> max chng: dpmx=   1.1855E+00 dtmpmx=   3.8618E-02

== TH FLOW =====================================================================
 Step    199 Time=  9.35000E+00 Dt=  5.00000E-02 [y] snes_conv_reason:    3
  newton =   1 [     206] linear =   121 [     24442] cuts =  0 [   0]
  --> max chng: dpmx=   1.1855E+00 dtmpmx=   3.8508E-02

== TH FLOW =====================================================================
 Step    200 Time=  9.40000E+00 Dt=  5.00000E-02 [y] snes_conv_reason:    3
  newton =   1 [     207] linear =   119 [     24561] cuts =  0 [   0]
  --> max chng: dpmx=   1.1850E+00 dtmpmx=   3.8384E-02

== TH FLOW =====================================================================
 Step    201 Time=  9.45000E+00 Dt=  5.00000E-02 [y] snes_conv_reason:    3
  newton =   1 [     208] linear =   120 [     24681] cuts =  0 [   0]
  --> max chng: dpmx=   1.1848E+00 dtmpmx=   3.8263E-02

== TH FLOW =====================================================================
 Step    202 Time=  9.50000E+00 Dt=  5.00000E-02 [y] snes_conv_reason:    3
  newton =   1 [     209] linear =   122 [     24803] cuts =  0 [   0]
  --> max chng: dpmx=   1.1847E+00 dtmpmx=   3.8132E-02

== TH FLOW =====================================================================
 Step    203 Time=  9.55000E+00 Dt=  5.00000E-02 [y] snes_conv_reason:    3
  newton =   1 [     210] linear =   121 [     24924] cuts =  0 [   0]
  --> max chng: dpmx=   1.1852E+00 dtmpmx=   3.7987E-02

== TH FLOW =====================================================================
 Step    204 Time=  9.60000E+00 Dt=  5.00000E-02 [y] snes_conv_reason:    3
  newton =   1 [     211] linear =   122 [     25046] cuts =  0 [   0]
  --> max chng: dpmx=   1.1851E+00 dtmpmx=   3.7829E-02

== TH FLOW =====================================================================
 Step    205 Time=  9.65000E+00 Dt=  5.00000E-02 [y] snes_conv_reason:    3
  newton =   1 [     212] linear =   121 [     25167] cuts =  0 [   0]
  --> max chng: dpmx=   1.1853E+00 dtmpmx=   3.7660E-02

== TH FLOW =====================================================================
 Step    206 Time=  9.70000E+00 Dt=  5.00000E-02 [y] snes_conv_reason:    3
  newton =   1 [     213] linear =   121 [     25288] cuts =  0 [   0]
  --> max chng: dpmx=   1.1851E+00 dtmpmx=   3.7478E-02

== TH FLOW =====================================================================
 Step    207 Time=  9.75000E+00 Dt=  5.00000E-02 [y] snes_conv_reason:    3
  newton =   1 [     214] linear =   121 [     25409] cuts =  0 [   0]
  --> max chng: dpmx=   1.1850E+00 dtmpmx=   3.7421E-02

== TH FLOW =====================================================================
 Step    208 Time=  9.80000E+00 Dt=  5.00000E-02 [y] snes_conv_reason:    3
  newton =   1 [     215] linear =   121 [     25530] cuts =  0 [   0]
  --> max chng: dpmx=   1.1846E+00 dtmpmx=   3.7363E-02

== TH FLOW =====================================================================
 Step    209 Time=  9.85000E+00 Dt=  5.00000E-02 [y] snes_conv_reason:    3
  newton =   1 [     216] linear =   123 [     25653] cuts =  0 [   0]
  --> max chng: dpmx=   1.1843E+00 dtmpmx=   3.7292E-02

== TH FLOW =====================================================================
 Step    210 Time=  9.90000E+00 Dt=  5.00000E-02 [y] snes_conv_reason:    3
  newton =   1 [     217] linear =   123 [     25776] cuts =  0 [   0]
  --> max chng: dpmx=   1.1839E+00 dtmpmx=   3.7209E-02

== TH FLOW =====================================================================
 Step    211 Time=  9.95000E+00 Dt=  5.00000E-02 [y] snes_conv_reason:    3
  newton =   1 [     218] linear =   123 [     25899] cuts =  0 [   0]
  --> max chng: dpmx=   1.1842E+00 dtmpmx=   3.7112E-02

== TH FLOW =====================================================================
 Step    212 Time=  1.00000E+01 Dt=  5.00000E-02 [y] snes_conv_reason:    3
  newton =   1 [     219] linear =   120 [     26019] cuts =  0 [   0]
  --> max chng: dpmx=   1.1844E+00 dtmpmx=   3.7003E-02

== TH FLOW =====================================================================
 Step    213 Time=  1.00500E+01 Dt=  5.00000E-02 [y] snes_conv_reason:    3
  newton =   1 [     220] linear =   123 [     26142] cuts =  0 [   0]
  --> max chng: dpmx=   1.1842E+00 dtmpmx=   3.6882E-02

== TH FLOW =====================================================================
 Step    214 Time=  1.01000E+01 Dt=  5.00000E-02 [y] snes_conv_reason:    3
  newton =   1 [     221] linear =   117 [     26259] cuts =  0 [   0]
  --> max chng: dpmx=   1.1846E+00 dtmpmx=   3.6764E-02

== TH FLOW =====================================================================
 Step    215 Time=  1.01500E+01 Dt=  5.00000E-02 [y] snes_conv_reason:    3
  newton =   1 [     222] linear =   122 [     26381] cuts =  0 [   0]
  --> max chng: dpmx=   1.1840E+00 dtmpmx=   3.6636E-02

== TH FLOW =====================================================================
 Step    216 Time=  1.02000E+01 Dt=  5.00000E-02 [y] snes_conv_reason:    3
  newton =   1 [     223] linear =   117 [     26498] cuts =  0 [   0]
  --> max chng: dpmx=   1.1843E+00 dtmpmx=   3.6496E-02

== TH FLOW =====================================================================
 Step    217 Time=  1.02500E+01 Dt=  5.00000E-02 [y] snes_conv_reason:    3
  newton =   1 [     224] linear =   126 [     26624] cuts =  0 [   0]
  --> max chng: dpmx=   1.1840E+00 dtmpmx=   3.6345E-02

== TH FLOW =====================================================================
 Step    218 Time=  1.03000E+01 Dt=  5.00000E-02 [y] snes_conv_reason:    3
  newton =   1 [     225] linear =   123 [     26747] cuts =  0 [   0]
  --> max chng: dpmx=   1.1839E+00 dtmpmx=   3.6183E-02

== TH FLOW =====================================================================
 Step    219 Time=  1.03500E+01 Dt=  5.00000E-02 [y] snes_conv_reason:    3
  newton =   1 [     226] linear =   119 [     26866] cuts =  0 [   0]
  --> max chng: dpmx=   1.1829E+00 dtmpmx=   3.6122E-02

== TH FLOW =====================================================================
 Step    220 Time=  1.04000E+01 Dt=  5.00000E-02 [y] snes_conv_reason:    3
  newton =   1 [     227] linear =   123 [     26989] cuts =  0 [   0]
  --> max chng: dpmx=   1.1834E+00 dtmpmx=   3.6073E-02

== TH FLOW =====================================================================
 Step    221 Time=  1.04500E+01 Dt=  5.00000E-02 [y] snes_conv_reason:    3
  newton =   1 [     228] linear =   121 [     27110] cuts =  0 [   0]
  --> max chng: dpmx=   1.1835E+00 dtmpmx=   3.6011E-02

== TH FLOW =====================================================================
 Step    222 Time=  1.05000E+01 Dt=  5.00000E-02 [y] snes_conv_reason:    3
  newton =   1 [     229] linear =   121 [     27231] cuts =  0 [   0]
  --> max chng: dpmx=   1.1834E+00 dtmpmx=   3.5937E-02

== TH FLOW =====================================================================
 Step    223 Time=  1.05500E+01 Dt=  5.00000E-02 [y] snes_conv_reason:    3
  newton =   1 [     230] linear =   121 [     27352] cuts =  0 [   0]
  --> max chng: dpmx=   1.1835E+00 dtmpmx=   3.5852E-02

== TH FLOW =====================================================================
 Step    224 Time=  1.06000E+01 Dt=  5.00000E-02 [y] snes_conv_reason:    3
  newton =   1 [     231] linear =   122 [     27474] cuts =  0 [   0]
  --> max chng: dpmx=   1.1834E+00 dtmpmx=   3.5756E-02

== TH FLOW =====================================================================
 Step    225 Time=  1.06500E+01 Dt=  5.00000E-02 [y] snes_conv_reason:    3
  newton =   1 [     232] linear =   121 [     27595] cuts =  0 [   0]
  --> max chng: dpmx=   1.1834E+00 dtmpmx=   3.5648E-02

== TH FLOW =====================================================================
 Step    226 Time=  1.07000E+01 Dt=  5.00000E-02 [y] snes_conv_reason:    3
  newton =   1 [     233] linear =   121 [     27716] cuts =  0 [   0]
  --> max chng: dpmx=   1.1828E+00 dtmpmx=   3.5530E-02

== TH FLOW =====================================================================
 Step    227 Time=  1.07500E+01 Dt=  5.00000E-02 [y] snes_conv_reason:    3
  newton =   1 [     234] linear =   122 [     27838] cuts =  0 [   0]
  --> max chng: dpmx=   1.1830E+00 dtmpmx=   3.5415E-02

== TH FLOW =====================================================================
 Step    228 Time=  1.08000E+01 Dt=  5.00000E-02 [y] snes_conv_reason:    3
  newton =   1 [     235] linear =   122 [     27960] cuts =  0 [   0]
  --> max chng: dpmx=   1.1825E+00 dtmpmx=   3.5290E-02

== TH FLOW =====================================================================
 Step    229 Time=  1.08500E+01 Dt=  5.00000E-02 [y] snes_conv_reason:    3
  newton =   1 [     236] linear =   122 [     28082] cuts =  0 [   0]
  --> max chng: dpmx=   1.1824E+00 dtmpmx=   3.5155E-02

== TH FLOW =====================================================================
 Step    230 Time=  1.09000E+01 Dt=  5.00000E-02 [y] snes_conv_reason:    3
  newton =   1 [     237] linear =   119 [     28201] cuts =  0 [   0]
  --> max chng: dpmx=   1.1822E+00 dtmpmx=   3.5010E-02

== TH FLOW =====================================================================
 Step    231 Time=  1.09500E+01 Dt=  5.00000E-02 [y] snes_conv_reason:    3
  newton =   1 [     238] linear =   118 [     28319] cuts =  0 [   0]
  --> max chng: dpmx=   1.1828E+00 dtmpmx=   3.4944E-02

== TH FLOW =====================================================================
 Step    232 Time=  1.10000E+01 Dt=  5.00000E-02 [y] snes_conv_reason:    3
  newton =   1 [     239] linear =   121 [     28440] cuts =  0 [   0]
  --> max chng: dpmx=   1.1826E+00 dtmpmx=   3.4901E-02

== TH FLOW =====================================================================
 Step    233 Time=  1.10500E+01 Dt=  5.00000E-02 [y] snes_conv_reason:    3
  newton =   1 [     240] linear =   123 [     28563] cuts =  0 [   0]
  --> max chng: dpmx=   1.1824E+00 dtmpmx=   3.4847E-02

== TH FLOW =====================================================================
 Step    234 Time=  1.11000E+01 Dt=  5.00000E-02 [y] snes_conv_reason:    3
  newton =   1 [     241] linear =   114 [     28677] cuts =  0 [   0]
  --> max chng: dpmx=   1.1822E+00 dtmpmx=   3.4782E-02

== TH FLOW =====================================================================
 Step    235 Time=  1.11500E+01 Dt=  5.00000E-02 [y] snes_conv_reason:    3
  newton =   1 [     242] linear =   121 [     28798] cuts =  0 [   0]
  --> max chng: dpmx=   1.1821E+00 dtmpmx=   3.4707E-02

== TH FLOW =====================================================================
 Step    236 Time=  1.12000E+01 Dt=  5.00000E-02 [y] snes_conv_reason:    3
  newton =   1 [     243] linear =   120 [     28918] cuts =  0 [   0]
  --> max chng: dpmx=   1.1819E+00 dtmpmx=   3.4622E-02

== TH FLOW =====================================================================
 Step    237 Time=  1.12500E+01 Dt=  5.00000E-02 [y] snes_conv_reason:    3
  newton =   1 [     244] linear =   120 [     29038] cuts =  0 [   0]
  --> max chng: dpmx=   1.1819E+00 dtmpmx=   3.4526E-02

== TH FLOW =====================================================================
 Step    238 Time=  1.13000E+01 Dt=  5.00000E-02 [y] snes_conv_reason:    3
  newton =   1 [     245] linear =   120 [     29158] cuts =  0 [   0]
  --> max chng: dpmx=   1.1813E+00 dtmpmx=   3.4420E-02

== TH FLOW =====================================================================
 Step    239 Time=  1.13500E+01 Dt=  5.00000E-02 [y] snes_conv_reason:    3
  newton =   1 [     246] linear =   121 [     29279] cuts =  0 [   0]
  --> max chng: dpmx=   1.1814E+00 dtmpmx=   3.4305E-02

== TH FLOW =====================================================================
 Step    240 Time=  1.14000E+01 Dt=  5.00000E-02 [y] snes_conv_reason:    3
  newton =   1 [     247] linear =   121 [     29400] cuts =  0 [   0]
  --> max chng: dpmx=   1.1815E+00 dtmpmx=   3.4192E-02

== TH FLOW =====================================================================
 Step    241 Time=  1.14500E+01 Dt=  5.00000E-02 [y] snes_conv_reason:    3
  newton =   1 [     248] linear =   121 [     29521] cuts =  0 [   0]
  --> max chng: dpmx=   1.1815E+00 dtmpmx=   3.4071E-02

== TH FLOW =====================================================================
 Step    242 Time=  1.15000E+01 Dt=  5.00000E-02 [y] snes_conv_reason:    3
  newton =   1 [     249] linear =   120 [     29641] cuts =  0 [   0]
  --> max chng: dpmx=   1.1817E+00 dtmpmx=   3.3940E-02

== TH FLOW =====================================================================
 Step    243 Time=  1.15500E+01 Dt=  5.00000E-02 [y] snes_conv_reason:    3
  newton =   1 [     250] linear =   121 [     29762] cuts =  0 [   0]
  --> max chng: dpmx=   1.1812E+00 dtmpmx=   3.3869E-02

== TH FLOW =====================================================================
 Step    244 Time=  1.16000E+01 Dt=  5.00000E-02 [y] snes_conv_reason:    3
  newton =   1 [     251] linear =   121 [     29883] cuts =  0 [   0]
  --> max chng: dpmx=   1.1812E+00 dtmpmx=   3.3832E-02

== TH FLOW =====================================================================
 Step    245 Time=  1.16500E+01 Dt=  5.00000E-02 [y] snes_conv_reason:    3
  newton =   1 [     252] linear =   118 [     30001] cuts =  0 [   0]
  --> max chng: dpmx=   1.1812E+00 dtmpmx=   3.3784E-02

== TH FLOW =====================================================================
 Step    246 Time=  1.17000E+01 Dt=  5.00000E-02 [y] snes_conv_reason:    3
  newton =   1 [     253] linear =   115 [     30116] cuts =  0 [   0]
  --> max chng: dpmx=   1.1806E+00 dtmpmx=   3.3727E-02

== TH FLOW =====================================================================
 Step    247 Time=  1.17500E+01 Dt=  5.00000E-02 [y] snes_conv_reason:    3
  newton =   1 [     254] linear =   116 [     30232] cuts =  0 [   0]
  --> max chng: dpmx=   1.1805E+00 dtmpmx=   3.3661E-02

== TH FLOW =====================================================================
 Step    248 Time=  1.18000E+01 Dt=  5.00000E-02 [y] snes_conv_reason:    3
  newton =   1 [     255] linear =   114 [     30346] cuts =  0 [   0]
  --> max chng: dpmx=   1.1801E+00 dtmpmx=   3.3584E-02

== TH FLOW =====================================================================
 Step    249 Time=  1.18500E+01 Dt=  5.00000E-02 [y] snes_conv_reason:    3
  newton =   1 [     256] linear =   114 [     30460] cuts =  0 [   0]
  --> max chng: dpmx=   1.1806E+00 dtmpmx=   3.3499E-02

== TH FLOW =====================================================================
 Step    250 Time=  1.19000E+01 Dt=  5.00000E-02 [y] snes_conv_reason:    3
  newton =   1 [     257] linear =   115 [     30575] cuts =  0 [   0]
  --> max chng: dpmx=   1.1806E+00 dtmpmx=   3.3404E-02

== TH FLOW =====================================================================
 Step    251 Time=  1.19500E+01 Dt=  5.00000E-02 [y] snes_conv_reason:    3
  newton =   1 [     258] linear =   116 [     30691] cuts =  0 [   0]
  --> max chng: dpmx=   1.1804E+00 dtmpmx=   3.3300E-02

== TH FLOW =====================================================================
 Step    252 Time=  1.20000E+01 Dt=  5.00000E-02 [y] snes_conv_reason:    3
  newton =   1 [     259] linear =   121 [     30812] cuts =  0 [   0]
  --> max chng: dpmx=   1.1808E+00 dtmpmx=   3.3188E-02

== TH FLOW =====================================================================
 Step    253 Time=  1.20500E+01 Dt=  5.00000E-02 [y] snes_conv_reason:    3
  newton =   1 [     260] linear =   114 [     30926] cuts =  0 [   0]
  --> max chng: dpmx=   1.1805E+00 dtmpmx=   3.3078E-02

== TH FLOW =====================================================================
 Step    254 Time=  1.21000E+01 Dt=  5.00000E-02 [y] snes_conv_reason:    3
  newton =   1 [     261] linear =   114 [     31040] cuts =  0 [   0]
  --> max chng: dpmx=   1.1799E+00 dtmpmx=   3.2960E-02

== TH FLOW =====================================================================
 Step    255 Time=  1.21500E+01 Dt=  5.00000E-02 [y] snes_conv_reason:    3
  newton =   1 [     262] linear =   121 [     31161] cuts =  0 [   0]
  --> max chng: dpmx=   1.1798E+00 dtmpmx=   3.2883E-02

== TH FLOW =====================================================================
 Step    256 Time=  1.22000E+01 Dt=  5.00000E-02 [y] snes_conv_reason:    3
  newton =   1 [     263] linear =   118 [     31279] cuts =  0 [   0]
  --> max chng: dpmx=   1.1799E+00 dtmpmx=   3.2850E-02

== TH FLOW =====================================================================
 Step    257 Time=  1.22500E+01 Dt=  5.00000E-02 [y] snes_conv_reason:    3
  newton =   1 [     264] linear =   117 [     31396] cuts =  0 [   0]
  --> max chng: dpmx=   1.1795E+00 dtmpmx=   3.2809E-02

[...]
 Step    493 Time=  2.40500E+01 Dt=  5.00000E-02 [y] snes_conv_reason:    3
  newton =   1 [     500] linear =   118 [     59580] cuts =  0 [   0]
  --> max chng: dpmx=   1.2253E+00 dtmpmx=   2.2341E-02

== TH FLOW =====================================================================
 Step    494 Time=  2.41000E+01 Dt=  5.00000E-02 [y] snes_conv_reason:    3
  newton =   1 [     501] linear =   118 [     59698] cuts =  0 [   0]
  --> max chng: dpmx=   1.2259E+00 dtmpmx=   2.2314E-02

== TH FLOW =====================================================================
 Step    495 Time=  2.41500E+01 Dt=  5.00000E-02 [y] snes_conv_reason:    3
  newton =   1 [     502] linear =   123 [     59821] cuts =  0 [   0]
  --> max chng: dpmx=   1.2259E+00 dtmpmx=   2.2284E-02

== TH FLOW =====================================================================
 Step    496 Time=  2.42000E+01 Dt=  5.00000E-02 [y] snes_conv_reason:    3
  newton =   1 [     503] linear =   123 [     59944] cuts =  0 [   0]
  --> max chng: dpmx=   1.2262E+00 dtmpmx=   2.2251E-02

== TH FLOW =====================================================================
 Step    497 Time=  2.42500E+01 Dt=  5.00000E-02 [y] snes_conv_reason:    3
  newton =   1 [     504] linear =   122 [     60066] cuts =  0 [   0]
  --> max chng: dpmx=   1.2262E+00 dtmpmx=   2.2215E-02

== TH FLOW =====================================================================
 Step    498 Time=  2.43000E+01 Dt=  5.00000E-02 [y] snes_conv_reason:    3
  newton =   1 [     505] linear =   122 [     60188] cuts =  0 [   0]
  --> max chng: dpmx=   1.2268E+00 dtmpmx=   2.2176E-02

== TH FLOW =====================================================================
 Step    499 Time=  2.43500E+01 Dt=  5.00000E-02 [y] snes_conv_reason:    3
  newton =   1 [     506] linear =   122 [     60310] cuts =  0 [   0]
  --> max chng: dpmx=   1.2271E+00 dtmpmx=   2.2135E-02

== TH FLOW =====================================================================
 Step    500 Time=  2.44000E+01 Dt=  5.00000E-02 [y] snes_conv_reason:    3
  newton =   1 [     507] linear =   122 [     60432] cuts =  0 [   0]
  --> max chng: dpmx=   1.2272E+00 dtmpmx=   2.2114E-02

== TH FLOW =====================================================================
 Step    501 Time=  2.44500E+01 Dt=  5.00000E-02 [y] snes_conv_reason:    3
  newton =   1 [     508] linear =   122 [     60554] cuts =  0 [   0]
  --> max chng: dpmx=   1.2276E+00 dtmpmx=   2.2102E-02

== TH FLOW =====================================================================
 Step    502 Time=  2.45000E+01 Dt=  5.00000E-02 [y] snes_conv_reason:    3
  newton =   1 [     509] linear =   120 [     60674] cuts =  0 [   0]
  --> max chng: dpmx=   1.2276E+00 dtmpmx=   2.2088E-02

== TH FLOW =====================================================================
 Step    503 Time=  2.45500E+01 Dt=  5.00000E-02 [y] snes_conv_reason:    3
  newton =   1 [     510] linear =   121 [     60795] cuts =  0 [   0]
  --> max chng: dpmx=   1.2278E+00 dtmpmx=   2.2071E-02

== TH FLOW =====================================================================
 Step    504 Time=  2.46000E+01 Dt=  5.00000E-02 [y] snes_conv_reason:    3
  newton =   1 [     511] linear =   121 [     60916] cuts =  0 [   0]
  --> max chng: dpmx=   1.2280E+00 dtmpmx=   2.2051E-02

== TH FLOW =====================================================================
 Step    505 Time=  2.46500E+01 Dt=  5.00000E-02 [y] snes_conv_reason:    3
  newton =   1 [     512] linear =   121 [     61037] cuts =  0 [   0]
  --> max chng: dpmx=   1.2282E+00 dtmpmx=   2.2028E-02

== TH FLOW =====================================================================
 Step    506 Time=  2.47000E+01 Dt=  5.00000E-02 [y] snes_conv_reason:    3
  newton =   1 [     513] linear =   121 [     61158] cuts =  0 [   0]
  --> max chng: dpmx=   1.2283E+00 dtmpmx=   2.2003E-02

== TH FLOW =====================================================================
 Step    507 Time=  2.47500E+01 Dt=  5.00000E-02 [y] snes_conv_reason:    3
  newton =   1 [     514] linear =   123 [     61281] cuts =  0 [   0]
  --> max chng: dpmx=   1.2288E+00 dtmpmx=   2.1974E-02

== TH FLOW =====================================================================
 Step    508 Time=  2.48000E+01 Dt=  5.00000E-02 [y] snes_conv_reason:    3
  newton =   1 [     515] linear =   121 [     61402] cuts =  0 [   0]
  --> max chng: dpmx=   1.2287E+00 dtmpmx=   2.1943E-02

== TH FLOW =====================================================================
 Step    509 Time=  2.48500E+01 Dt=  5.00000E-02 [y] snes_conv_reason:    3
  newton =   1 [     516] linear =   121 [     61523] cuts =  0 [   0]
  --> max chng: dpmx=   1.2293E+00 dtmpmx=   2.1910E-02

== TH FLOW =====================================================================
 Step    510 Time=  2.49000E+01 Dt=  5.00000E-02 [y] snes_conv_reason:    3
  newton =   1 [     517] linear =   122 [     61645] cuts =  0 [   0]
  --> max chng: dpmx=   1.2292E+00 dtmpmx=   2.1873E-02

== TH FLOW =====================================================================
 Step    511 Time=  2.49500E+01 Dt=  5.00000E-02 [y] snes_conv_reason:    3
  newton =   1 [     518] linear =   122 [     61767] cuts =  0 [   0]
  --> max chng: dpmx=   1.2296E+00 dtmpmx=   2.1834E-02

== TH FLOW =====================================================================
 Step    512 Time=  2.50000E+01 Dt=  5.00000E-02 [y] snes_conv_reason:    3
  newton =   1 [     519] linear =   121 [     61888] cuts =  0 [   0]
  --> max chng: dpmx=   1.2298E+00 dtmpmx=   2.1806E-02

== TH FLOW =====================================================================
 Step    513 Time=  2.50500E+01 Dt=  5.00000E-02 [y] snes_conv_reason:    3
  newton =   1 [     520] linear =   120 [     62008] cuts =  0 [   0]
  --> max chng: dpmx=   1.2298E+00 dtmpmx=   2.1796E-02

== TH FLOW =====================================================================
 Step    514 Time=  2.51000E+01 Dt=  5.00000E-02 [y] snes_conv_reason:    3
  newton =   1 [     521] linear =   122 [     62130] cuts =  0 [   0]
  --> max chng: dpmx=   1.2302E+00 dtmpmx=   2.1783E-02

== TH FLOW =====================================================================
 Step    515 Time=  2.51500E+01 Dt=  5.00000E-02 [y] snes_conv_reason:    3
  newton =   1 [     522] linear =   118 [     62248] cuts =  0 [   0]
  --> max chng: dpmx=   1.2303E+00 dtmpmx=   2.1767E-02

== TH FLOW =====================================================================
 Step    516 Time=  2.52000E+01 Dt=  5.00000E-02 [y] snes_conv_reason:    3
  newton =   1 [     523] linear =   122 [     62370] cuts =  0 [   0]
  --> max chng: dpmx=   1.2301E+00 dtmpmx=   2.1748E-02

== TH FLOW =====================================================================
 Step    517 Time=  2.52500E+01 Dt=  5.00000E-02 [y] snes_conv_reason:    3
  newton =   1 [     524] linear =   121 [     62491] cuts =  0 [   0]
  --> max chng: dpmx=   1.2303E+00 dtmpmx=   2.1727E-02

== TH FLOW =====================================================================
 Step    518 Time=  2.53000E+01 Dt=  5.00000E-02 [y] snes_conv_reason:    3
  newton =   1 [     525] linear =   121 [     62612] cuts =  0 [   0]
  --> max chng: dpmx=   1.2307E+00 dtmpmx=   2.1703E-02

== TH FLOW =====================================================================
 Step    519 Time=  2.53500E+01 Dt=  5.00000E-02 [y] snes_conv_reason:    3
  newton =   1 [     526] linear =   121 [     62733] cuts =  0 [   0]
  --> max chng: dpmx=   1.2310E+00 dtmpmx=   2.1676E-02

== TH FLOW =====================================================================
 Step    520 Time=  2.54000E+01 Dt=  5.00000E-02 [y] snes_conv_reason:    3
  newton =   1 [     527] linear =   113 [     62846] cuts =  0 [   0]
  --> max chng: dpmx=   1.2312E+00 dtmpmx=   2.1647E-02

== TH FLOW =====================================================================
 Step    521 Time=  2.54500E+01 Dt=  5.00000E-02 [y] snes_conv_reason:    3
  newton =   1 [     528] linear =   121 [     62967] cuts =  0 [   0]
  --> max chng: dpmx=   1.2313E+00 dtmpmx=   2.1615E-02

== TH FLOW =====================================================================
 Step    522 Time=  2.55000E+01 Dt=  5.00000E-02 [y] snes_conv_reason:    3
  newton =   1 [     529] linear =   121 [     63088] cuts =  0 [   0]
  --> max chng: dpmx=   1.2314E+00 dtmpmx=   2.1581E-02

== TH FLOW =====================================================================
 Step    523 Time=  2.55500E+01 Dt=  5.00000E-02 [y] snes_conv_reason:    3
  newton =   1 [     530] linear =   121 [     63209] cuts =  0 [   0]
  --> max chng: dpmx=   1.2317E+00 dtmpmx=   2.1544E-02

== TH FLOW =====================================================================
 Step    524 Time=  2.56000E+01 Dt=  5.00000E-02 [y] snes_conv_reason:    3
  newton =   1 [     531] linear =   113 [     63322] cuts =  0 [   0]
  --> max chng: dpmx=   1.2318E+00 dtmpmx=   2.1509E-02

== TH FLOW =====================================================================
 Step    525 Time=  2.56500E+01 Dt=  5.00000E-02 [y] snes_conv_reason:    3
  newton =   1 [     532] linear =   115 [     63437] cuts =  0 [   0]
  --> max chng: dpmx=   1.2320E+00 dtmpmx=   2.1500E-02

== TH FLOW =====================================================================
 Step    526 Time=  2.57000E+01 Dt=  5.00000E-02 [y] snes_conv_reason:    3
  newton =   1 [     533] linear =   121 [     63558] cuts =  0 [   0]
  --> max chng: dpmx=   1.2319E+00 dtmpmx=   2.1488E-02

== TH FLOW =====================================================================
 Step    527 Time=  2.57500E+01 Dt=  5.00000E-02 [y] snes_conv_reason:    3
  newton =   1 [     534] linear =   121 [     63679] cuts =  0 [   0]
  --> max chng: dpmx=   1.2319E+00 dtmpmx=   2.1474E-02

== TH FLOW =====================================================================
 Step    528 Time=  2.58000E+01 Dt=  5.00000E-02 [y] snes_conv_reason:    3
  newton =   1 [     535] linear =   121 [     63800] cuts =  0 [   0]
  --> max chng: dpmx=   1.2322E+00 dtmpmx=   2.1456E-02

== TH FLOW =====================================================================
 Step    529 Time=  2.58500E+01 Dt=  5.00000E-02 [y] snes_conv_reason:    3
  newton =   1 [     536] linear =   121 [     63921] cuts =  0 [   0]
  --> max chng: dpmx=   1.2325E+00 dtmpmx=   2.1436E-02

== TH FLOW =====================================================================
 Step    530 Time=  2.59000E+01 Dt=  5.00000E-02 [y] snes_conv_reason:    3
  newton =   1 [     537] linear =   121 [     64042] cuts =  0 [   0]
  --> max chng: dpmx=   1.2327E+00 dtmpmx=   2.1414E-02

== TH FLOW =====================================================================
 Step    531 Time=  2.59500E+01 Dt=  5.00000E-02 [y] snes_conv_reason:    3
  newton =   1 [     538] linear =   122 [     64164] cuts =  0 [   0]
  --> max chng: dpmx=   1.2329E+00 dtmpmx=   2.1389E-02

== TH FLOW =====================================================================
 Step    532 Time=  2.60000E+01 Dt=  5.00000E-02 [y] snes_conv_reason:    3
  newton =   1 [     539] linear =   121 [     64285] cuts =  0 [   0]
  --> max chng: dpmx=   1.2330E+00 dtmpmx=   2.1361E-02

== TH FLOW =====================================================================
 Step    533 Time=  2.60500E+01 Dt=  5.00000E-02 [y] snes_conv_reason:    3
  newton =   1 [     540] linear =   120 [     64405] cuts =  0 [   0]
  --> max chng: dpmx=   1.2329E+00 dtmpmx=   2.1331E-02

== TH FLOW =====================================================================
 Step    534 Time=  2.61000E+01 Dt=  5.00000E-02 [y] snes_conv_reason:    3
  newton =   1 [     541] linear =   121 [     64526] cuts =  0 [   0]
  --> max chng: dpmx=   1.2333E+00 dtmpmx=   2.1299E-02

== TH FLOW =====================================================================
 Step    535 Time=  2.61500E+01 Dt=  5.00000E-02 [y] snes_conv_reason:    3
  newton =   1 [     542] linear =   121 [     64647] cuts =  0 [   0]
  --> max chng: dpmx=   1.2332E+00 dtmpmx=   2.1264E-02

== TH FLOW =====================================================================
 Step    536 Time=  2.62000E+01 Dt=  5.00000E-02 [y] snes_conv_reason:    3
  newton =   1 [     543] linear =   119 [     64766] cuts =  0 [   0]
  --> max chng: dpmx=   1.2332E+00 dtmpmx=   2.1226E-02

== TH FLOW =====================================================================
 Step    537 Time=  2.62500E+01 Dt=  5.00000E-02 [y] snes_conv_reason:    3
  newton =   1 [     544] linear =   119 [     64885] cuts =  0 [   0]
  --> max chng: dpmx=   1.2336E+00 dtmpmx=   2.1215E-02

== TH FLOW =====================================================================
 Step    538 Time=  2.63000E+01 Dt=  5.00000E-02 [y] snes_conv_reason:    3
  newton =   1 [     545] linear =   121 [     65006] cuts =  0 [   0]
  --> max chng: dpmx=   1.2333E+00 dtmpmx=   2.1204E-02

== TH FLOW =====================================================================
 Step    539 Time=  2.63500E+01 Dt=  5.00000E-02 [y] snes_conv_reason:    3
  newton =   1 [     546] linear =   129 [     65135] cuts =  0 [   0]
  --> max chng: dpmx=   1.2338E+00 dtmpmx=   2.1191E-02

== TH FLOW =====================================================================
 Step    540 Time=  2.64000E+01 Dt=  5.00000E-02 [y] snes_conv_reason:    3
  newton =   1 [     547] linear =   120 [     65255] cuts =  0 [   0]
  --> max chng: dpmx=   1.2338E+00 dtmpmx=   2.1174E-02

== TH FLOW =====================================================================
 Step    541 Time=  2.64500E+01 Dt=  5.00000E-02 [y] snes_conv_reason:    3
  newton =   1 [     548] linear =   115 [     65370] cuts =  0 [   0]
  --> max chng: dpmx=   1.2339E+00 dtmpmx=   2.1156E-02

== TH FLOW =====================================================================
 Step    542 Time=  2.65000E+01 Dt=  5.00000E-02 [y] snes_conv_reason:    3
  newton =   1 [     549] linear =   121 [     65491] cuts =  0 [   0]
  --> max chng: dpmx=   1.2342E+00 dtmpmx=   2.1135E-02

== TH FLOW =====================================================================
 Step    543 Time=  2.65500E+01 Dt=  5.00000E-02 [y] snes_conv_reason:    3
  newton =   1 [     550] linear =   118 [     65609] cuts =  0 [   0]
  --> max chng: dpmx=   1.2345E+00 dtmpmx=   2.1111E-02

== TH FLOW =====================================================================
 Step    544 Time=  2.66000E+01 Dt=  5.00000E-02 [y] snes_conv_reason:    3
  newton =   1 [     551] linear =   119 [     65728] cuts =  0 [   0]
  --> max chng: dpmx=   1.2341E+00 dtmpmx=   2.1085E-02

== TH FLOW =====================================================================
 Step    545 Time=  2.66500E+01 Dt=  5.00000E-02 [y] snes_conv_reason:    3
  newton =   1 [     552] linear =   118 [     65846] cuts =  0 [   0]
  --> max chng: dpmx=   1.2344E+00 dtmpmx=   2.1057E-02

== TH FLOW =====================================================================
 Step    546 Time=  2.67000E+01 Dt=  5.00000E-02 [y] snes_conv_reason:    3
  newton =   1 [     553] linear =   118 [     65964] cuts =  0 [   0]
  --> max chng: dpmx=   1.2341E+00 dtmpmx=   2.1026E-02

== TH FLOW =====================================================================
 Step    547 Time=  2.67500E+01 Dt=  5.00000E-02 [y] snes_conv_reason:    3
  newton =   1 [     554] linear =   118 [     66082] cuts =  0 [   0]
  --> max chng: dpmx=   1.2346E+00 dtmpmx=   2.0993E-02

== TH FLOW =====================================================================
 Step    548 Time=  2.68000E+01 Dt=  5.00000E-02 [y] snes_conv_reason:    3
  newton =   1 [     555] linear =   117 [     66199] cuts =  0 [   0]
  --> max chng: dpmx=   1.2342E+00 dtmpmx=   2.0957E-02

== TH FLOW =====================================================================
 Step    549 Time=  2.68500E+01 Dt=  5.00000E-02 [y] snes_conv_reason:    3
  newton =   1 [     556] linear =   117 [     66316] cuts =  0 [   0]
  --> max chng: dpmx=   1.2345E+00 dtmpmx=   2.0940E-02

== TH FLOW =====================================================================
 Step    550 Time=  2.69000E+01 Dt=  5.00000E-02 [y] snes_conv_reason:    3
  newton =   1 [     557] linear =   116 [     66432] cuts =  0 [   0]
  --> max chng: dpmx=   1.2346E+00 dtmpmx=   2.0930E-02

== TH FLOW =====================================================================
 Step    551 Time=  2.69500E+01 Dt=  5.00000E-02 [y] snes_conv_reason:    3
  newton =   1 [     558] linear =   117 [     66549] cuts =  0 [   0]
  --> max chng: dpmx=   1.2350E+00 dtmpmx=   2.0917E-02

== TH FLOW =====================================================================
 Step    552 Time=  2.70000E+01 Dt=  5.00000E-02 [y] snes_conv_reason:    3
  newton =   1 [     559] linear =   118 [     66667] cuts =  0 [   0]
  --> max chng: dpmx=   1.2349E+00 dtmpmx=   2.0902E-02

== TH FLOW =====================================================================
 Step    553 Time=  2.70500E+01 Dt=  5.00000E-02 [y] snes_conv_reason:    3
  newton =   1 [     560] linear =   116 [     66783] cuts =  0 [   0]
  --> max chng: dpmx=   1.2349E+00 dtmpmx=   2.0885E-02

== TH FLOW =====================================================================
 Step    554 Time=  2.71000E+01 Dt=  5.00000E-02 [y] snes_conv_reason:    3
  newton =   1 [     561] linear =   118 [     66901] cuts =  0 [   0]
  --> max chng: dpmx=   1.2351E+00 dtmpmx=   2.0865E-02

== TH FLOW =====================================================================
 Step    555 Time=  2.71500E+01 Dt=  5.00000E-02 [y] snes_conv_reason:    3
  newton =   1 [     562] linear =   117 [     67018] cuts =  0 [   0]
  --> max chng: dpmx=   1.2349E+00 dtmpmx=   2.0843E-02

== TH FLOW =====================================================================
 Step    556 Time=  2.72000E+01 Dt=  5.00000E-02 [y] snes_conv_reason:    3
  newton =   1 [     563] linear =   113 [     67131] cuts =  0 [   0]
  --> max chng: dpmx=   1.2351E+00 dtmpmx=   2.0819E-02

== TH FLOW =====================================================================
 Step    557 Time=  2.72500E+01 Dt=  5.00000E-02 [y] snes_conv_reason:    3
  newton =   1 [     564] linear =   118 [     67249] cuts =  0 [   0]
  --> max chng: dpmx=   1.2352E+00 dtmpmx=   2.0792E-02

== TH FLOW =====================================================================
 Step    558 Time=  2.73000E+01 Dt=  5.00000E-02 [y] snes_conv_reason:    3
  newton =   1 [     565] linear =   118 [     67367] cuts =  0 [   0]
  --> max chng: dpmx=   1.2350E+00 dtmpmx=   2.0762E-02

== TH FLOW =====================================================================
 Step    559 Time=  2.73500E+01 Dt=  5.00000E-02 [y] snes_conv_reason:    3
  newton =   1 [     566] linear =   118 [     67485] cuts =  0 [   0]
  --> max chng: dpmx=   1.2350E+00 dtmpmx=   2.0731E-02

== TH FLOW =====================================================================
 Step    560 Time=  2.74000E+01 Dt=  5.00000E-02 [y] snes_conv_reason:    3
  newton =   1 [     567] linear =   119 [     67604] cuts =  0 [   0]
  --> max chng: dpmx=   1.2352E+00 dtmpmx=   2.0697E-02

== TH FLOW =====================================================================
 Step    561 Time=  2.74500E+01 Dt=  5.00000E-02 [y] snes_conv_reason:    3
  newton =   1 [     568] linear =   121 [     67725] cuts =  0 [   0]
  --> max chng: dpmx=   1.2353E+00 dtmpmx=   2.0674E-02

== TH FLOW =====================================================================
 Step    562 Time=  2.75000E+01 Dt=  5.00000E-02 [y] snes_conv_reason:    3
  newton =   1 [     569] linear =   119 [     67844] cuts =  0 [   0]
  --> max chng: dpmx=   1.2354E+00 dtmpmx=   2.0665E-02

 Wall Clock Time:  1.9282E+02 [sec]   3.2137E+00 [min]   5.3562E-02 [hr]
