
===================
  PFLOTRAN v3.0.1
===================

 Extent of Gridded Domain
  X: 2.5000000000000000 - 97.500000000000000
  Y: 2.5000000000000000 - 1277.5000000000000
  Z: 2.5000000000000000 - 2.5000000000000000


=+=+=+=+=+=+=+=+=+=+=+=+=+=+=+=+=+=+=+=+=+=+=+=+=+=+=+=+=+=+=+=+=+=+=+=+=+=+=+=+

  Initial Condition

--------------------------------------------------------------------------------
          Flow Condition:   initial
                  Region:   all
--------------------------------------------------------------------------------

  Flow Condition: initial
    Synchronize time with update: no
    Time units: yr
    Length units: m
      Datum:
        Dataset: Unnamed Ascii Dataset
          Type: dataset_ascii_type
          Transient: no
          Array Rank:  3

    Sub Condition: pressure
      Type: hydrostatic
      Gradient:
        Dataset: Unnamed Ascii Dataset
          Type: dataset_ascii_type
          Transient: no
          Array Rank:  3
      Data:
        Dataset: Unnamed Ascii Dataset
          Type: dataset_ascii_type
          Transient: no
          Array Rank:  1

    Sub Condition: temperature
      Type: dirichlet
      Gradient:
      Data:
        Dataset: Unnamed Ascii Dataset
          Type: dataset_ascii_type
          Transient: no
          Array Rank:  1

--------------------------------------------------------------------------------

=+=+=+=+=+=+=+=+=+=+=+=+=+=+=+=+=+=+=+=+=+=+=+=+=+=+=+=+=+=+=+=+=+=+=+=+=+=+=+=+

  Boundary Condition

--------------------------------------------------------------------------------
          Flow Condition:   initial
                  Region:   north
--------------------------------------------------------------------------------

  Flow Condition: initial
    Synchronize time with update: no
    Time units: yr
    Length units: m
      Datum:
        Dataset: Unnamed Ascii Dataset
          Type: dataset_ascii_type
          Transient: no
          Array Rank:  3

    Sub Condition: pressure
      Type: hydrostatic
      Gradient:
        Dataset: Unnamed Ascii Dataset
          Type: dataset_ascii_type
          Transient: no
          Array Rank:  3
      Data:
        Dataset: Unnamed Ascii Dataset
          Type: dataset_ascii_type
          Transient: no
          Array Rank:  1

    Sub Condition: temperature
      Type: dirichlet
      Gradient:
      Data:
        Dataset: Unnamed Ascii Dataset
          Type: dataset_ascii_type
          Transient: no
          Array Rank:  1

--------------------------------------------------------------------------------

=+=+=+=+=+=+=+=+=+=+=+=+=+=+=+=+=+=+=+=+=+=+=+=+=+=+=+=+=+=+=+=+=+=+=+=+=+=+=+=+

  Boundary Condition

--------------------------------------------------------------------------------
          Flow Condition:   initial
                  Region:   south
--------------------------------------------------------------------------------

  Flow Condition: initial
    Synchronize time with update: no
    Time units: yr
    Length units: m
      Datum:
        Dataset: Unnamed Ascii Dataset
          Type: dataset_ascii_type
          Transient: no
          Array Rank:  3

    Sub Condition: pressure
      Type: hydrostatic
      Gradient:
        Dataset: Unnamed Ascii Dataset
          Type: dataset_ascii_type
          Transient: no
          Array Rank:  3
      Data:
        Dataset: Unnamed Ascii Dataset
          Type: dataset_ascii_type
          Transient: no
          Array Rank:  1

    Sub Condition: temperature
      Type: dirichlet
      Gradient:
      Data:
        Dataset: Unnamed Ascii Dataset
          Type: dataset_ascii_type
          Transient: no
          Array Rank:  1

--------------------------------------------------------------------------------

=+=+=+=+=+=+=+=+=+=+=+=+=+=+=+=+=+=+=+=+=+=+=+=+=+=+=+=+=+=+=+=+=+=+=+=+=+=+=+=+

  Source Sink

--------------------------------------------------------------------------------
          Flow Condition:   injection
                  Region:   heatpump_inject0
--------------------------------------------------------------------------------

  Flow Condition: injection
    Synchronize time with update: no
    Time units: yr
    Length units: m
      Datum:

    Sub Condition: rate
      Type: scaled volumetric rate
      Gradient:
      Data:
        Dataset: Unnamed Ascii Dataset
          Type: dataset_ascii_type
          Is transient?: yes
          Number of times:      3
          Is cyclic?: no
          Buffer:
            Rank:  2
            Dims:    1   3
            Buffer Slice Size:   0
          Array Rank:  1

    Sub Condition: temperature
      Type: dirichlet
      Gradient:
      Data:
        Dataset: Unnamed Ascii Dataset
          Type: dataset_ascii_type
          Transient: no
          Array Rank:  1

--------------------------------------------------------------------------------

 Requested processors =    32

FLOW Time Stepper
                 acceleration: on
       acceleration threshold: 5
       number of ramp entries: 5
                ramp entry #1: 2.0000
                ramp entry #2: 2.0000
                ramp entry #3: 2.0000
                ramp entry #4: 2.0000
                ramp entry #5: 2.0000
                ramp entry #6: 1.8000
                ramp entry #7: 1.6000
                ramp entry #8: 1.4000
                ramp entry #9: 1.2000
               ramp entry #10: 1.0000
               ramp entry #11: 1.0000
               ramp entry #12: 1.0000
               ramp entry #13: 1.0000
      maximum number of steps: 999999
constant time steps threshold: 5
       maximum number of cuts: 16
             reduction factor: 5.000000E-01
        maximum growth factor: 2.000000E+00

FLOW Newton Solver
                         atol: 1.000000E-50
                         rtol: 1.000000E-03
                         stol: 1.000000E-08
                         dtol: 1.000000E+04
                      maxnorm: 1.000000E+20
                    inftolres: -9.990000E+02
                    inftolupd: 1.000000E+00
                 inftolrelupd: -9.990000E+02
                 inftolsclres: -9.990000E+02
                     max iter: 50
                     min iter: 1
                         maxf: 10000
                  matrix type: baij
         precond. matrix type: baij
               inexact newton: off
            print convergence: on
   print detailed convergence: off
          check infinity norm: on

FLOW Linear Solver
                       solver: bcgs
               preconditioner: bjacobi
                         atol: 1.000000E-50
                         rtol: 1.000000E-05
                         dtol: 1.000000E+04
            maximum iteration: 10000

== TH FLOW =====================================================================
 Step      1 Time=  1.00000E-05 Dt=  1.00000E-05 [y] snes_conv_reason:   11
  newton =   1 [       1] linear =   104 [       104] cuts =  0 [   0]
  --> max chng: dpmx=   5.5223E-02 dtmpmx=   2.4055E-09

== TH FLOW =====================================================================
 Step      2 Time=  3.00000E-05 Dt=  2.00000E-05 [y] snes_conv_reason:   11
  newton =   1 [       2] linear =   116 [       220] cuts =  0 [   0]
  --> max chng: dpmx=   5.3085E-02 dtmpmx=   4.7393E-09

== TH FLOW =====================================================================
 Step      3 Time=  7.00000E-05 Dt=  4.00000E-05 [y] snes_conv_reason:   11
  newton =   1 [       3] linear =   113 [       333] cuts =  0 [   0]
  --> max chng: dpmx=   3.1582E-02 dtmpmx=   9.3852E-09

== TH FLOW =====================================================================
 Step      4 Time=  1.50000E-04 Dt=  8.00000E-05 [y] snes_conv_reason:   11
  newton =   1 [       4] linear =   120 [       453] cuts =  0 [   0]
  --> max chng: dpmx=   1.0901E-02 dtmpmx=   1.8705E-08

== TH FLOW =====================================================================
 Step      5 Time=  3.10000E-04 Dt=  1.60000E-04 [y] snes_conv_reason:   11
  newton =   1 [       5] linear =   115 [       568] cuts =  0 [   0]
  --> max chng: dpmx=   2.0549E-03 dtmpmx=   3.7386E-08

== TH FLOW =====================================================================
 Step      6 Time=  6.30000E-04 Dt=  3.20000E-04 [y] snes_conv_reason:   11
  newton =   1 [       6] linear =   118 [       686] cuts =  0 [   0]
  --> max chng: dpmx=   2.0307E-04 dtmpmx=   7.4768E-08

== TH FLOW =====================================================================
 Step      7 Time=  1.27000E-03 Dt=  6.40000E-04 [y] snes_conv_reason:   11
  newton =   1 [       7] linear =   126 [       812] cuts =  0 [   0]
  --> max chng: dpmx=   9.9648E-06 dtmpmx=   1.4954E-07

== TH FLOW =====================================================================
 Step      8 Time=  2.55000E-03 Dt=  1.28000E-03 [y] snes_conv_reason:   11
  newton =   1 [       8] linear =   122 [       934] cuts =  0 [   0]
  --> max chng: dpmx=   1.3479E-06 dtmpmx=   2.9907E-07

== TH FLOW =====================================================================
 Step      9 Time=  5.11000E-03 Dt=  2.56000E-03 [y] snes_conv_reason:   11
  newton =   1 [       9] linear =   132 [      1066] cuts =  0 [   0]
  --> max chng: dpmx=   2.7537E-06 dtmpmx=   5.9815E-07

== TH FLOW =====================================================================
 Step     10 Time=  1.02300E-02 Dt=  5.12000E-03 [y] snes_conv_reason:   11
  newton =   1 [      10] linear =   127 [      1193] cuts =  0 [   0]
  --> max chng: dpmx=   5.6759E-06 dtmpmx=   1.1963E-06

== TH FLOW =====================================================================
 Step     11 Time=  2.04700E-02 Dt=  1.02400E-02 [y] snes_conv_reason:   11
  newton =   1 [      11] linear =   121 [      1314] cuts =  0 [   0]
  --> max chng: dpmx=   1.2008E-05 dtmpmx=   2.3926E-06

== TH FLOW =====================================================================
 Step     12 Time=  4.09500E-02 Dt=  2.04800E-02 [y] snes_conv_reason:   11
  newton =   1 [      12] linear =   122 [      1436] cuts =  0 [   0]
  --> max chng: dpmx=   2.6720E-05 dtmpmx=   4.7852E-06

== TH FLOW =====================================================================
 Step     13 Time=  8.19100E-02 Dt=  4.09600E-02 [y] snes_conv_reason:   11
  newton =   1 [      13] linear =   133 [      1569] cuts =  0 [   0]
  --> max chng: dpmx=   6.4023E-05 dtmpmx=   9.5703E-06

== TH FLOW =====================================================================
 Step     14 Time=  1.00000E-01 Dt=  1.80900E-02 [y] snes_conv_reason:   11
  newton =   1 [      14] linear =   122 [      1691] cuts =  0 [   0]
  --> max chng: dpmx=   3.0377E-05 dtmpmx=   4.2267E-06

== TH FLOW =====================================================================
 Step     15 Time=  1.50000E-01 Dt=  5.00000E-02 [y] snes_conv_reason:   11
  newton =   1 [      15] linear =   119 [      1810] cuts =  0 [   0]
  --> max chng: dpmx=   9.9562E-05 dtmpmx=   1.1683E-05

== TH FLOW =====================================================================
 Step     16 Time=  2.00000E-01 Dt=  5.00000E-02 [y] snes_conv_reason:   11
  newton =   1 [      16] linear =   130 [      1940] cuts =  0 [   0]
  --> max chng: dpmx=   1.1520E-04 dtmpmx=   1.1683E-05

== TH FLOW =====================================================================
 Step     17 Time=  2.50000E-01 Dt=  5.00000E-02 [y] snes_conv_reason:    3
  newton =   3 [      19] linear =   394 [      2334] cuts =  0 [   0]
  --> max chng: dpmx=   1.9075E+03 dtmpmx=   3.5070E+00

== TH FLOW =====================================================================
 Step     18 Time=  3.00000E-01 Dt=  5.00000E-02 [y] snes_conv_reason:   11
  newton =   2 [      21] linear =   267 [      2601] cuts =  0 [   0]
  --> max chng: dpmx=   1.2214E+01 dtmpmx=   1.3406E+00

== TH FLOW =====================================================================
 Step     19 Time=  3.50000E-01 Dt=  5.00000E-02 [y] snes_conv_reason:   11
  newton =   2 [      23] linear =   269 [      2870] cuts =  0 [   0]
  --> max chng: dpmx=   6.1591E+00 dtmpmx=   8.5218E-01

== TH FLOW =====================================================================
 Step     20 Time=  4.00000E-01 Dt=  5.00000E-02 [y] snes_conv_reason:   11
  newton =   2 [      25] linear =   258 [      3128] cuts =  0 [   0]
  --> max chng: dpmx=   3.7934E+00 dtmpmx=   7.1613E-01

== TH FLOW =====================================================================
 Step     21 Time=  4.50000E-01 Dt=  5.00000E-02 [y] snes_conv_reason:   11
  newton =   2 [      27] linear =   259 [      3387] cuts =  0 [   0]
  --> max chng: dpmx=   3.5769E+00 dtmpmx=   5.7042E-01

== TH FLOW =====================================================================
 Step     22 Time=  5.00000E-01 Dt=  5.00000E-02 [y] snes_conv_reason:    3
  newton =   1 [      28] linear =   138 [      3525] cuts =  0 [   0]
  --> max chng: dpmx=   3.4318E+00 dtmpmx=   5.2056E-01

== TH FLOW =====================================================================
 Step     23 Time=  5.50000E-01 Dt=  5.00000E-02 [y] snes_conv_reason:   11
  newton =   2 [      30] linear =   268 [      3793] cuts =  0 [   0]
  --> max chng: dpmx=   3.3147E+00 dtmpmx=   4.5089E-01

== TH FLOW =====================================================================
 Step     24 Time=  6.00000E-01 Dt=  5.00000E-02 [y] snes_conv_reason:    3
  newton =   1 [      31] linear =   140 [      3933] cuts =  0 [   0]
  --> max chng: dpmx=   3.2189E+00 dtmpmx=   4.2060E-01

== TH FLOW =====================================================================
 Step     25 Time=  6.50000E-01 Dt=  5.00000E-02 [y] snes_conv_reason:    3
  newton =   1 [      32] linear =   133 [      4066] cuts =  0 [   0]
  --> max chng: dpmx=   3.1573E+00 dtmpmx=   3.8712E-01

== TH FLOW =====================================================================
 Step     26 Time=  7.00000E-01 Dt=  5.00000E-02 [y] snes_conv_reason:    3
  newton =   1 [      33] linear =   138 [      4204] cuts =  0 [   0]
  --> max chng: dpmx=   3.0850E+00 dtmpmx=   3.5574E-01

== TH FLOW =====================================================================
 Step     27 Time=  7.50000E-01 Dt=  5.00000E-02 [y] snes_conv_reason:    3
  newton =   1 [      34] linear =   134 [      4338] cuts =  0 [   0]
  --> max chng: dpmx=   3.0411E+00 dtmpmx=   3.4044E-01

== TH FLOW =====================================================================
 Step     28 Time=  8.00000E-01 Dt=  5.00000E-02 [y] snes_conv_reason:    3
  newton =   1 [      35] linear =   132 [      4470] cuts =  0 [   0]
  --> max chng: dpmx=   2.9864E+00 dtmpmx=   3.1762E-01

== TH FLOW =====================================================================
 Step     29 Time=  8.50000E-01 Dt=  5.00000E-02 [y] snes_conv_reason:    3
  newton =   1 [      36] linear =   137 [      4607] cuts =  0 [   0]
  --> max chng: dpmx=   2.9485E+00 dtmpmx=   3.0294E-01

== TH FLOW =====================================================================
 Step     30 Time=  9.00000E-01 Dt=  5.00000E-02 [y] snes_conv_reason:    3
  newton =   1 [      37] linear =   138 [      4745] cuts =  0 [   0]
  --> max chng: dpmx=   2.9063E+00 dtmpmx=   2.9134E-01

== TH FLOW =====================================================================
 Step     31 Time=  9.50000E-01 Dt=  5.00000E-02 [y] snes_conv_reason:    3
  newton =   1 [      38] linear =   131 [      4876] cuts =  0 [   0]
  --> max chng: dpmx=   2.8741E+00 dtmpmx=   2.7489E-01

== TH FLOW =====================================================================
 Step     32 Time=  1.00000E+00 Dt=  5.00000E-02 [y] snes_conv_reason:    3
  newton =   1 [      39] linear =   131 [      5007] cuts =  0 [   0]
  --> max chng: dpmx=   2.8382E+00 dtmpmx=   2.6695E-01

== TH FLOW =====================================================================
 Step     33 Time=  1.05000E+00 Dt=  5.00000E-02 [y] snes_conv_reason:    3
  newton =   1 [      40] linear =   135 [      5142] cuts =  0 [   0]
  --> max chng: dpmx=   2.8119E+00 dtmpmx=   2.5804E-01

== TH FLOW =====================================================================
 Step     34 Time=  1.10000E+00 Dt=  5.00000E-02 [y] snes_conv_reason:    3
  newton =   1 [      41] linear =   138 [      5280] cuts =  0 [   0]
  --> max chng: dpmx=   2.7800E+00 dtmpmx=   2.4563E-01

== TH FLOW =====================================================================
 Step     35 Time=  1.15000E+00 Dt=  5.00000E-02 [y] snes_conv_reason:    3
  newton =   1 [      42] linear =   138 [      5418] cuts =  0 [   0]
  --> max chng: dpmx=   2.7581E+00 dtmpmx=   2.4077E-01

== TH FLOW =====================================================================
 Step     36 Time=  1.20000E+00 Dt=  5.00000E-02 [y] snes_conv_reason:    3
  newton =   1 [      43] linear =   137 [      5555] cuts =  0 [   0]
  --> max chng: dpmx=   2.7284E+00 dtmpmx=   2.3377E-01

== TH FLOW =====================================================================
 Step     37 Time=  1.25000E+00 Dt=  5.00000E-02 [y] snes_conv_reason:    3
  newton =   1 [      44] linear =   136 [      5691] cuts =  0 [   0]
  --> max chng: dpmx=   2.7101E+00 dtmpmx=   2.2408E-01

== TH FLOW =====================================================================
 Step     38 Time=  1.30000E+00 Dt=  5.00000E-02 [y] snes_conv_reason:    3
  newton =   1 [      45] linear =   119 [      5810] cuts =  0 [   0]
  --> max chng: dpmx=   2.6823E+00 dtmpmx=   2.2076E-01

== TH FLOW =====================================================================
 Step     39 Time=  1.35000E+00 Dt=  5.00000E-02 [y] snes_conv_reason:    3
  newton =   1 [      46] linear =   134 [      5944] cuts =  0 [   0]
  --> max chng: dpmx=   2.6679E+00 dtmpmx=   2.1516E-01

== TH FLOW =====================================================================
 Step     40 Time=  1.40000E+00 Dt=  5.00000E-02 [y] snes_conv_reason:    3
  newton =   1 [      47] linear =   135 [      6079] cuts =  0 [   0]
  --> max chng: dpmx=   2.6439E+00 dtmpmx=   2.0738E-01

== TH FLOW =====================================================================
 Step     41 Time=  1.45000E+00 Dt=  5.00000E-02 [y] snes_conv_reason:    3
  newton =   1 [      48] linear =   139 [      6218] cuts =  0 [   0]
  --> max chng: dpmx=   2.6292E+00 dtmpmx=   2.0487E-01

== TH FLOW =====================================================================
 Step     42 Time=  1.50000E+00 Dt=  5.00000E-02 [y] snes_conv_reason:    3
  newton =   1 [      49] linear =   137 [      6355] cuts =  0 [   0]
  --> max chng: dpmx=   2.6101E+00 dtmpmx=   2.0031E-01

== TH FLOW =====================================================================
 Step     43 Time=  1.55000E+00 Dt=  5.00000E-02 [y] snes_conv_reason:    3
  newton =   1 [      50] linear =   138 [      6493] cuts =  0 [   0]
  --> max chng: dpmx=   2.5935E+00 dtmpmx=   1.9394E-01

== TH FLOW =====================================================================
 Step     44 Time=  1.60000E+00 Dt=  5.00000E-02 [y] snes_conv_reason:    3
  newton =   1 [      51] linear =   137 [      6630] cuts =  0 [   0]
  --> max chng: dpmx=   2.5780E+00 dtmpmx=   1.9189E-01

== TH FLOW =====================================================================
 Step     45 Time=  1.65000E+00 Dt=  5.00000E-02 [y] snes_conv_reason:    3
  newton =   1 [      52] linear =   140 [      6770] cuts =  0 [   0]
  --> max chng: dpmx=   2.5609E+00 dtmpmx=   1.8812E-01

== TH FLOW =====================================================================
 Step     46 Time=  1.70000E+00 Dt=  5.00000E-02 [y] snes_conv_reason:    3
  newton =   1 [      53] linear =   140 [      6910] cuts =  0 [   0]
  --> max chng: dpmx=   2.5482E+00 dtmpmx=   1.8280E-01

== TH FLOW =====================================================================
 Step     47 Time=  1.75000E+00 Dt=  5.00000E-02 [y] snes_conv_reason:    3
  newton =   1 [      54] linear =   135 [      7045] cuts =  0 [   0]
  --> max chng: dpmx=   2.5313E+00 dtmpmx=   1.8103E-01

== TH FLOW =====================================================================
 Step     48 Time=  1.80000E+00 Dt=  5.00000E-02 [y] snes_conv_reason:    3
  newton =   1 [      55] linear =   137 [      7182] cuts =  0 [   0]
  --> max chng: dpmx=   2.5201E+00 dtmpmx=   1.7788E-01

== TH FLOW =====================================================================
 Step     49 Time=  1.85000E+00 Dt=  5.00000E-02 [y] snes_conv_reason:    3
  newton =   1 [      56] linear =   139 [      7321] cuts =  0 [   0]
  --> max chng: dpmx=   2.5035E+00 dtmpmx=   1.7338E-01

== TH FLOW =====================================================================
 Step     50 Time=  1.90000E+00 Dt=  5.00000E-02 [y] snes_conv_reason:    3
  newton =   1 [      57] linear =   136 [      7457] cuts =  0 [   0]
  --> max chng: dpmx=   2.4945E+00 dtmpmx=   1.7178E-01

== TH FLOW =====================================================================
 Step     51 Time=  1.95000E+00 Dt=  5.00000E-02 [y] snes_conv_reason:    3
  newton =   1 [      58] linear =   132 [      7589] cuts =  0 [   0]
  --> max chng: dpmx=   2.4802E+00 dtmpmx=   1.6910E-01

== TH FLOW =====================================================================
 Step     52 Time=  2.00000E+00 Dt=  5.00000E-02 [y] snes_conv_reason:    3
  newton =   1 [      59] linear =   141 [      7730] cuts =  0 [   0]
  --> max chng: dpmx=   2.4694E+00 dtmpmx=   1.6525E-01

== TH FLOW =====================================================================
 Step     53 Time=  2.05000E+00 Dt=  5.00000E-02 [y] snes_conv_reason:    3
  newton =   1 [      60] linear =   142 [      7872] cuts =  0 [   0]
  --> max chng: dpmx=   2.4580E+00 dtmpmx=   1.6376E-01

== TH FLOW =====================================================================
 Step     54 Time=  2.10000E+00 Dt=  5.00000E-02 [y] snes_conv_reason:    3
  newton =   1 [      61] linear =   140 [      8012] cuts =  0 [   0]
  --> max chng: dpmx=   2.4462E+00 dtmpmx=   1.6148E-01

== TH FLOW =====================================================================
 Step     55 Time=  2.15000E+00 Dt=  5.00000E-02 [y] snes_conv_reason:    3
  newton =   1 [      62] linear =   129 [      8141] cuts =  0 [   0]
  --> max chng: dpmx=   2.4366E+00 dtmpmx=   1.5815E-01

== TH FLOW =====================================================================
 Step     56 Time=  2.20000E+00 Dt=  5.00000E-02 [y] snes_conv_reason:    3
  newton =   1 [      63] linear =   139 [      8280] cuts =  0 [   0]
  --> max chng: dpmx=   2.4230E+00 dtmpmx=   1.5674E-01

== TH FLOW =====================================================================
 Step     57 Time=  2.25000E+00 Dt=  5.00000E-02 [y] snes_conv_reason:    3
  newton =   1 [      64] linear =   141 [      8421] cuts =  0 [   0]
  --> max chng: dpmx=   2.4159E+00 dtmpmx=   1.5477E-01

== TH FLOW =====================================================================
 Step     58 Time=  2.30000E+00 Dt=  5.00000E-02 [y] snes_conv_reason:    3
  newton =   1 [      65] linear =   132 [      8553] cuts =  0 [   0]
  --> max chng: dpmx=   2.4040E+00 dtmpmx=   1.5186E-01

== TH FLOW =====================================================================
 Step     59 Time=  2.35000E+00 Dt=  5.00000E-02 [y] snes_conv_reason:    3
  newton =   1 [      66] linear =   139 [      8692] cuts =  0 [   0]
  --> max chng: dpmx=   2.3960E+00 dtmpmx=   1.5051E-01

== TH FLOW =====================================================================
 Step     60 Time=  2.40000E+00 Dt=  5.00000E-02 [y] snes_conv_reason:    3
  newton =   1 [      67] linear =   140 [      8832] cuts =  0 [   0]
  --> max chng: dpmx=   2.3859E+00 dtmpmx=   1.4880E-01

== TH FLOW =====================================================================
 Step     61 Time=  2.45000E+00 Dt=  5.00000E-02 [y] snes_conv_reason:    3
  newton =   1 [      68] linear =   139 [      8971] cuts =  0 [   0]
  --> max chng: dpmx=   2.3762E+00 dtmpmx=   1.4624E-01

== TH FLOW =====================================================================
 Step     62 Time=  2.50000E+00 Dt=  5.00000E-02 [y] snes_conv_reason:    3
  newton =   1 [      69] linear =   136 [      9107] cuts =  0 [   0]
  --> max chng: dpmx=   2.3688E+00 dtmpmx=   1.4493E-01

== TH FLOW =====================================================================
 Step     63 Time=  2.55000E+00 Dt=  5.00000E-02 [y] snes_conv_reason:    3
  newton =   1 [      70] linear =   137 [      9244] cuts =  0 [   0]
  --> max chng: dpmx=   2.3574E+00 dtmpmx=   1.4344E-01

== TH FLOW =====================================================================
 Step     64 Time=  2.60000E+00 Dt=  5.00000E-02 [y] snes_conv_reason:    3
  newton =   1 [      71] linear =   138 [      9382] cuts =  0 [   0]
  --> max chng: dpmx=   2.3504E+00 dtmpmx=   1.4118E-01

== TH FLOW =====================================================================
 Step     65 Time=  2.65000E+00 Dt=  5.00000E-02 [y] snes_conv_reason:    3
  newton =   1 [      72] linear =   136 [      9518] cuts =  0 [   0]
  --> max chng: dpmx=   2.3410E+00 dtmpmx=   1.3990E-01

== TH FLOW =====================================================================
 Step     66 Time=  2.70000E+00 Dt=  5.00000E-02 [y] snes_conv_reason:    3
  newton =   1 [      73] linear =   138 [      9656] cuts =  0 [   0]
  --> max chng: dpmx=   2.3341E+00 dtmpmx=   1.3859E-01

== TH FLOW =====================================================================
 Step     67 Time=  2.75000E+00 Dt=  5.00000E-02 [y] snes_conv_reason:    3
  newton =   1 [      74] linear =   138 [      9794] cuts =  0 [   0]
  --> max chng: dpmx=   2.3256E+00 dtmpmx=   1.3658E-01

== TH FLOW =====================================================================
 Step     68 Time=  2.80000E+00 Dt=  5.00000E-02 [y] snes_conv_reason:    3
  newton =   1 [      75] linear =   140 [      9934] cuts =  0 [   0]
  --> max chng: dpmx=   2.3169E+00 dtmpmx=   1.3534E-01

== TH FLOW =====================================================================
 Step     69 Time=  2.85000E+00 Dt=  5.00000E-02 [y] snes_conv_reason:    3
  newton =   1 [      76] linear =   138 [     10072] cuts =  0 [   0]
  --> max chng: dpmx=   2.3099E+00 dtmpmx=   1.3418E-01

== TH FLOW =====================================================================
 Step     70 Time=  2.90000E+00 Dt=  5.00000E-02 [y] snes_conv_reason:    3
  newton =   1 [      77] linear =   137 [     10209] cuts =  0 [   0]
  --> max chng: dpmx=   2.3005E+00 dtmpmx=   1.3237E-01

== TH FLOW =====================================================================
 Step     71 Time=  2.95000E+00 Dt=  5.00000E-02 [y] snes_conv_reason:    3
  newton =   1 [      78] linear =   137 [     10346] cuts =  0 [   0]
  --> max chng: dpmx=   2.2947E+00 dtmpmx=   1.3116E-01

== TH FLOW =====================================================================
 Step     72 Time=  3.00000E+00 Dt=  5.00000E-02 [y] snes_conv_reason:    3
  newton =   1 [      79] linear =   129 [     10475] cuts =  0 [   0]
  --> max chng: dpmx=   2.2867E+00 dtmpmx=   1.3014E-01

== TH FLOW =====================================================================
 Step     73 Time=  3.05000E+00 Dt=  5.00000E-02 [y] snes_conv_reason:    3
  newton =   1 [      80] linear =   137 [     10612] cuts =  0 [   0]
  --> max chng: dpmx=   2.2796E+00 dtmpmx=   1.2851E-01

== TH FLOW =====================================================================
 Step     74 Time=  3.10000E+00 Dt=  5.00000E-02 [y] snes_conv_reason:    3
  newton =   1 [      81] linear =   134 [     10746] cuts =  0 [   0]
  --> max chng: dpmx=   2.2725E+00 dtmpmx=   1.2733E-01

== TH FLOW =====================================================================
 Step     75 Time=  3.15000E+00 Dt=  5.00000E-02 [y] snes_conv_reason:    3
  newton =   1 [      82] linear =   129 [     10875] cuts =  0 [   0]
  --> max chng: dpmx=   2.2644E+00 dtmpmx=   1.2642E-01

== TH FLOW =====================================================================
 Step     76 Time=  3.20000E+00 Dt=  5.00000E-02 [y] snes_conv_reason:    3
  newton =   1 [      83] linear =   134 [     11009] cuts =  0 [   0]
  --> max chng: dpmx=   2.2583E+00 dtmpmx=   1.2495E-01

== TH FLOW =====================================================================
 Step     77 Time=  3.25000E+00 Dt=  5.00000E-02 [y] snes_conv_reason:    3
  newton =   1 [      84] linear =   135 [     11144] cuts =  0 [   0]
  --> max chng: dpmx=   2.2507E+00 dtmpmx=   1.2378E-01

== TH FLOW =====================================================================
 Step     78 Time=  3.30000E+00 Dt=  5.00000E-02 [y] snes_conv_reason:    3
  newton =   1 [      85] linear =   135 [     11279] cuts =  0 [   0]
  --> max chng: dpmx=   2.2444E+00 dtmpmx=   1.2297E-01

== TH FLOW =====================================================================
 Step     79 Time=  3.35000E+00 Dt=  5.00000E-02 [y] snes_conv_reason:    3
  newton =   1 [      86] linear =   136 [     11415] cuts =  0 [   0]
  --> max chng: dpmx=   2.2377E+00 dtmpmx=   1.2164E-01

== TH FLOW =====================================================================
 Step     80 Time=  3.40000E+00 Dt=  5.00000E-02 [y] snes_conv_reason:    3
  newton =   1 [      87] linear =   134 [     11549] cuts =  0 [   0]
  --> max chng: dpmx=   2.2307E+00 dtmpmx=   1.2050E-01

== TH FLOW =====================================================================
 Step     81 Time=  3.45000E+00 Dt=  5.00000E-02 [y] snes_conv_reason:    3
  newton =   1 [      88] linear =   134 [     11683] cuts =  0 [   0]
  --> max chng: dpmx=   2.2246E+00 dtmpmx=   1.1978E-01

== TH FLOW =====================================================================
 Step     82 Time=  3.50000E+00 Dt=  5.00000E-02 [y] snes_conv_reason:    3
  newton =   1 [      89] linear =   136 [     11819] cuts =  0 [   0]
  --> max chng: dpmx=   2.2167E+00 dtmpmx=   1.1857E-01

== TH FLOW =====================================================================
 Step     83 Time=  3.55000E+00 Dt=  5.00000E-02 [y] snes_conv_reason:    3
  newton =   1 [      90] linear =   130 [     11949] cuts =  0 [   0]
  --> max chng: dpmx=   2.2120E+00 dtmpmx=   1.1745E-01

== TH FLOW =====================================================================
 Step     84 Time=  3.60000E+00 Dt=  5.00000E-02 [y] snes_conv_reason:    3
  newton =   1 [      91] linear =   135 [     12084] cuts =  0 [   0]
  --> max chng: dpmx=   2.2046E+00 dtmpmx=   1.1679E-01

== TH FLOW =====================================================================
 Step     85 Time=  3.65000E+00 Dt=  5.00000E-02 [y] snes_conv_reason:    3
  newton =   1 [      92] linear =   134 [     12218] cuts =  0 [   0]
  --> max chng: dpmx=   2.1982E+00 dtmpmx=   1.1569E-01

== TH FLOW =====================================================================
 Step     86 Time=  3.70000E+00 Dt=  5.00000E-02 [y] snes_conv_reason:    3
  newton =   1 [      93] linear =   134 [     12352] cuts =  0 [   0]
  --> max chng: dpmx=   2.1930E+00 dtmpmx=   1.1459E-01

== TH FLOW =====================================================================
 Step     87 Time=  3.75000E+00 Dt=  5.00000E-02 [y] snes_conv_reason:    3
  newton =   1 [      94] linear =   139 [     12491] cuts =  0 [   0]
  --> max chng: dpmx=   2.1853E+00 dtmpmx=   1.1401E-01

== TH FLOW =====================================================================
 Step     88 Time=  3.80000E+00 Dt=  5.00000E-02 [y] snes_conv_reason:    3
  newton =   1 [      95] linear =   135 [     12626] cuts =  0 [   0]
  --> max chng: dpmx=   2.1809E+00 dtmpmx=   1.1300E-01

== TH FLOW =====================================================================
 Step     89 Time=  3.85000E+00 Dt=  5.00000E-02 [y] snes_conv_reason:    3
  newton =   1 [      96] linear =   140 [     12766] cuts =  0 [   0]
  --> max chng: dpmx=   2.1733E+00 dtmpmx=   1.1192E-01

== TH FLOW =====================================================================
 Step     90 Time=  3.90000E+00 Dt=  5.00000E-02 [y] snes_conv_reason:    3
  newton =   1 [      97] linear =   133 [     12899] cuts =  0 [   0]
  --> max chng: dpmx=   2.1685E+00 dtmpmx=   1.1139E-01

== TH FLOW =====================================================================
 Step     91 Time=  3.95000E+00 Dt=  5.00000E-02 [y] snes_conv_reason:    3
  newton =   1 [      98] linear =   134 [     13033] cuts =  0 [   0]
  --> max chng: dpmx=   2.1621E+00 dtmpmx=   1.1046E-01

== TH FLOW =====================================================================
 Step     92 Time=  4.00000E+00 Dt=  5.00000E-02 [y] snes_conv_reason:    3
  newton =   1 [      99] linear =   132 [     13165] cuts =  0 [   0]
  --> max chng: dpmx=   2.1554E+00 dtmpmx=   1.0940E-01

== TH FLOW =====================================================================
 Step     93 Time=  4.05000E+00 Dt=  5.00000E-02 [y] snes_conv_reason:    3
  newton =   1 [     100] linear =   134 [     13299] cuts =  0 [   0]
  --> max chng: dpmx=   2.1510E+00 dtmpmx=   1.0893E-01

== TH FLOW =====================================================================
 Step     94 Time=  4.10000E+00 Dt=  5.00000E-02 [y] snes_conv_reason:    3
  newton =   1 [     101] linear =   129 [     13428] cuts =  0 [   0]
  --> max chng: dpmx=   2.1438E+00 dtmpmx=   1.0808E-01

== TH FLOW =====================================================================
 Step     95 Time=  4.15000E+00 Dt=  5.00000E-02 [y] snes_conv_reason:    3
  newton =   1 [     102] linear =   140 [     13568] cuts =  0 [   0]
  --> max chng: dpmx=   2.1389E+00 dtmpmx=   1.0703E-01

== TH FLOW =====================================================================
 Step     96 Time=  4.20000E+00 Dt=  5.00000E-02 [y] snes_conv_reason:    3
  newton =   1 [     103] linear =   138 [     13706] cuts =  0 [   0]
  --> max chng: dpmx=   2.1329E+00 dtmpmx=   1.0661E-01

== TH FLOW =====================================================================
 Step     97 Time=  4.25000E+00 Dt=  5.00000E-02 [y] snes_conv_reason:    3
  newton =   1 [     104] linear =   135 [     13841] cuts =  0 [   0]
  --> max chng: dpmx=   2.1270E+00 dtmpmx=   1.0582E-01

== TH FLOW =====================================================================
 Step     98 Time=  4.30000E+00 Dt=  5.00000E-02 [y] snes_conv_reason:    3
  newton =   1 [     105] linear =   137 [     13978] cuts =  0 [   0]
  --> max chng: dpmx=   2.1223E+00 dtmpmx=   1.0480E-01

== TH FLOW =====================================================================
 Step     99 Time=  4.35000E+00 Dt=  5.00000E-02 [y] snes_conv_reason:    3
  newton =   1 [     106] linear =   137 [     14115] cuts =  0 [   0]
  --> max chng: dpmx=   2.1154E+00 dtmpmx=   1.0441E-01

== TH FLOW =====================================================================
 Step    100 Time=  4.40000E+00 Dt=  5.00000E-02 [y] snes_conv_reason:    3
  newton =   1 [     107] linear =   138 [     14253] cuts =  0 [   0]
  --> max chng: dpmx=   2.1105E+00 dtmpmx=   1.0369E-01

== TH FLOW =====================================================================
 Step    101 Time=  4.45000E+00 Dt=  5.00000E-02 [y] snes_conv_reason:    3
  newton =   1 [     108] linear =   130 [     14383] cuts =  0 [   0]
  --> max chng: dpmx=   2.1047E+00 dtmpmx=   1.0268E-01

== TH FLOW =====================================================================
 Step    102 Time=  4.50000E+00 Dt=  5.00000E-02 [y] snes_conv_reason:    3
  newton =   1 [     109] linear =   133 [     14516] cuts =  0 [   0]
  --> max chng: dpmx=   2.0997E+00 dtmpmx=   1.0233E-01

== TH FLOW =====================================================================
 Step    103 Time=  4.55000E+00 Dt=  5.00000E-02 [y] snes_conv_reason:    3
  newton =   1 [     110] linear =   136 [     14652] cuts =  0 [   0]
  --> max chng: dpmx=   2.0940E+00 dtmpmx=   1.0166E-01

== TH FLOW =====================================================================
 Step    104 Time=  4.60000E+00 Dt=  5.00000E-02 [y] snes_conv_reason:    3
  newton =   1 [     111] linear =   136 [     14788] cuts =  0 [   0]
  --> max chng: dpmx=   2.0880E+00 dtmpmx=   1.0068E-01

== TH FLOW =====================================================================
 Step    105 Time=  4.65000E+00 Dt=  5.00000E-02 [y] snes_conv_reason:    3
  newton =   1 [     112] linear =   134 [     14922] cuts =  0 [   0]
  --> max chng: dpmx=   2.0837E+00 dtmpmx=   1.0035E-01

== TH FLOW =====================================================================
 Step    106 Time=  4.70000E+00 Dt=  5.00000E-02 [y] snes_conv_reason:    3
  newton =   1 [     113] linear =   137 [     15059] cuts =  0 [   0]
  --> max chng: dpmx=   2.0775E+00 dtmpmx=   9.9732E-02

== TH FLOW =====================================================================
 Step    107 Time=  4.75000E+00 Dt=  5.00000E-02 [y] snes_conv_reason:    3
  newton =   1 [     114] linear =   136 [     15195] cuts =  0 [   0]
  --> max chng: dpmx=   2.0723E+00 dtmpmx=   9.8818E-02

== TH FLOW =====================================================================
 Step    108 Time=  4.80000E+00 Dt=  5.00000E-02 [y] snes_conv_reason:    3
  newton =   1 [     115] linear =   125 [     15320] cuts =  0 [   0]
  --> max chng: dpmx=   2.0675E+00 dtmpmx=   9.8472E-02

== TH FLOW =====================================================================
 Step    109 Time=  4.85000E+00 Dt=  5.00000E-02 [y] snes_conv_reason:    3
  newton =   1 [     116] linear =   136 [     15456] cuts =  0 [   0]
  --> max chng: dpmx=   2.0613E+00 dtmpmx=   9.7897E-02

== TH FLOW =====================================================================
 Step    110 Time=  4.90000E+00 Dt=  5.00000E-02 [y] snes_conv_reason:    3
  newton =   1 [     117] linear =   123 [     15579] cuts =  0 [   0]
  --> max chng: dpmx=   2.0565E+00 dtmpmx=   9.7041E-02

== TH FLOW =====================================================================
 Step    111 Time=  4.95000E+00 Dt=  5.00000E-02 [y] snes_conv_reason:    3
  newton =   1 [     118] linear =   130 [     15709] cuts =  0 [   0]
  --> max chng: dpmx=   2.0514E+00 dtmpmx=   9.6681E-02

== TH FLOW =====================================================================
 Step    112 Time=  5.00000E+00 Dt=  5.00000E-02 [y] snes_conv_reason:    3
  newton =   1 [     119] linear =   136 [     15845] cuts =  0 [   0]
  --> max chng: dpmx=   2.0465E+00 dtmpmx=   9.6146E-02

== TH FLOW =====================================================================
 Step    113 Time=  5.05000E+00 Dt=  5.00000E-02 [y] snes_conv_reason:    3
  newton =   1 [     120] linear =   136 [     15981] cuts =  0 [   0]
  --> max chng: dpmx=   2.0415E+00 dtmpmx=   9.5343E-02

== TH FLOW =====================================================================
 Step    114 Time=  5.10000E+00 Dt=  5.00000E-02 [y] snes_conv_reason:    3
  newton =   1 [     121] linear =   136 [     16117] cuts =  0 [   0]
  --> max chng: dpmx=   2.0352E+00 dtmpmx=   9.4970E-02

== TH FLOW =====================================================================
 Step    115 Time=  5.15000E+00 Dt=  5.00000E-02 [y] snes_conv_reason:    3
  newton =   1 [     122] linear =   135 [     16252] cuts =  0 [   0]
  --> max chng: dpmx=   2.0312E+00 dtmpmx=   9.4473E-02

== TH FLOW =====================================================================
 Step    116 Time=  5.20000E+00 Dt=  5.00000E-02 [y] snes_conv_reason:    3
  newton =   1 [     123] linear =   134 [     16386] cuts =  0 [   0]
  --> max chng: dpmx=   2.0253E+00 dtmpmx=   9.3719E-02

== TH FLOW =====================================================================
 Step    117 Time=  5.25000E+00 Dt=  5.00000E-02 [y] snes_conv_reason:    3
  newton =   1 [     124] linear =   136 [     16522] cuts =  0 [   0]
  --> max chng: dpmx=   2.0209E+00 dtmpmx=   9.3335E-02

== TH FLOW =====================================================================
 Step    118 Time=  5.30000E+00 Dt=  5.00000E-02 [y] snes_conv_reason:    3
  newton =   1 [     125] linear =   129 [     16651] cuts =  0 [   0]
  --> max chng: dpmx=   2.0158E+00 dtmpmx=   9.2872E-02

== TH FLOW =====================================================================
 Step    119 Time=  5.35000E+00 Dt=  5.00000E-02 [y] snes_conv_reason:    3
  newton =   1 [     126] linear =   133 [     16784] cuts =  0 [   0]
  --> max chng: dpmx=   2.0100E+00 dtmpmx=   9.2164E-02

== TH FLOW =====================================================================
 Step    120 Time=  5.40000E+00 Dt=  5.00000E-02 [y] snes_conv_reason:    3
  newton =   1 [     127] linear =   136 [     16920] cuts =  0 [   0]
  --> max chng: dpmx=   2.0058E+00 dtmpmx=   9.1770E-02

== TH FLOW =====================================================================
 Step    121 Time=  5.45000E+00 Dt=  5.00000E-02 [y] snes_conv_reason:    3
  newton =   1 [     128] linear =   132 [     17052] cuts =  0 [   0]
  --> max chng: dpmx=   2.0003E+00 dtmpmx=   9.1339E-02

== TH FLOW =====================================================================
 Step    122 Time=  5.50000E+00 Dt=  5.00000E-02 [y] snes_conv_reason:    3
  newton =   1 [     129] linear =   132 [     17184] cuts =  0 [   0]
  --> max chng: dpmx=   1.9961E+00 dtmpmx=   9.0672E-02

== TH FLOW =====================================================================
 Step    123 Time=  5.55000E+00 Dt=  5.00000E-02 [y] snes_conv_reason:    3
  newton =   1 [     130] linear =   131 [     17315] cuts =  0 [   0]
  --> max chng: dpmx=   1.9908E+00 dtmpmx=   9.0270E-02

== TH FLOW =====================================================================
 Step    124 Time=  5.60000E+00 Dt=  5.00000E-02 [y] snes_conv_reason:    3
  newton =   1 [     131] linear =   131 [     17446] cuts =  0 [   0]
  --> max chng: dpmx=   1.9853E+00 dtmpmx=   8.9867E-02

== TH FLOW =====================================================================
 Step    125 Time=  5.65000E+00 Dt=  5.00000E-02 [y] snes_conv_reason:    3
  newton =   1 [     132] linear =   137 [     17583] cuts =  0 [   0]
  --> max chng: dpmx=   1.9809E+00 dtmpmx=   8.9238E-02

== TH FLOW =====================================================================
 Step    126 Time=  5.70000E+00 Dt=  5.00000E-02 [y] snes_conv_reason:    3
  newton =   1 [     133] linear =   135 [     17718] cuts =  0 [   0]
  --> max chng: dpmx=   1.9759E+00 dtmpmx=   8.8829E-02

== TH FLOW =====================================================================
 Step    127 Time=  5.75000E+00 Dt=  5.00000E-02 [y] snes_conv_reason:    3
  newton =   1 [     134] linear =   133 [     17851] cuts =  0 [   0]
  --> max chng: dpmx=   1.9709E+00 dtmpmx=   8.8454E-02

== TH FLOW =====================================================================
 Step    128 Time=  5.80000E+00 Dt=  5.00000E-02 [y] snes_conv_reason:    3
  newton =   1 [     135] linear =   132 [     17983] cuts =  0 [   0]
  --> max chng: dpmx=   1.9668E+00 dtmpmx=   8.7860E-02

== TH FLOW =====================================================================
 Step    129 Time=  5.85000E+00 Dt=  5.00000E-02 [y] snes_conv_reason:    3
  newton =   1 [     136] linear =   134 [     18117] cuts =  0 [   0]
  --> max chng: dpmx=   1.9610E+00 dtmpmx=   8.7446E-02

== TH FLOW =====================================================================
 Step    130 Time=  5.90000E+00 Dt=  5.00000E-02 [y] snes_conv_reason:    3
  newton =   1 [     137] linear =   133 [     18250] cuts =  0 [   0]
  --> max chng: dpmx=   1.9566E+00 dtmpmx=   8.7095E-02

== TH FLOW =====================================================================
 Step    131 Time=  5.95000E+00 Dt=  5.00000E-02 [y] snes_conv_reason:    3
  newton =   1 [     138] linear =   135 [     18385] cuts =  0 [   0]
  --> max chng: dpmx=   1.9521E+00 dtmpmx=   8.6534E-02

== TH FLOW =====================================================================
 Step    132 Time=  6.00000E+00 Dt=  5.00000E-02 [y] snes_conv_reason:    3
  newton =   1 [     139] linear =   130 [     18515] cuts =  0 [   0]
  --> max chng: dpmx=   1.9461E+00 dtmpmx=   8.6114E-02

== TH FLOW =====================================================================
 Step    133 Time=  6.05000E+00 Dt=  5.00000E-02 [y] snes_conv_reason:    3
  newton =   1 [     140] linear =   133 [     18648] cuts =  0 [   0]
  --> max chng: dpmx=   1.9430E+00 dtmpmx=   8.5786E-02

== TH FLOW =====================================================================
 Step    134 Time=  6.10000E+00 Dt=  5.00000E-02 [y] snes_conv_reason:    3
  newton =   1 [     141] linear =   140 [     18788] cuts =  0 [   0]
  --> max chng: dpmx=   1.9370E+00 dtmpmx=   8.5256E-02

== TH FLOW =====================================================================
 Step    135 Time=  6.15000E+00 Dt=  5.00000E-02 [y] snes_conv_reason:    3
  newton =   1 [     142] linear =   131 [     18919] cuts =  0 [   0]
  --> max chng: dpmx=   1.9326E+00 dtmpmx=   8.4832E-02

== TH FLOW =====================================================================
 Step    136 Time=  6.20000E+00 Dt=  5.00000E-02 [y] snes_conv_reason:    3
  newton =   1 [     143] linear =   125 [     19044] cuts =  0 [   0]
  --> max chng: dpmx=   1.9284E+00 dtmpmx=   8.4525E-02

== TH FLOW =====================================================================
 Step    137 Time=  6.25000E+00 Dt=  5.00000E-02 [y] snes_conv_reason:    3
  newton =   1 [     144] linear =   130 [     19174] cuts =  0 [   0]
  --> max chng: dpmx=   1.9227E+00 dtmpmx=   8.4024E-02

== TH FLOW =====================================================================
 Step    138 Time=  6.30000E+00 Dt=  5.00000E-02 [y] snes_conv_reason:    3
  newton =   1 [     145] linear =   134 [     19308] cuts =  0 [   0]
  --> max chng: dpmx=   1.9192E+00 dtmpmx=   8.3597E-02

== TH FLOW =====================================================================
 Step    139 Time=  6.35000E+00 Dt=  5.00000E-02 [y] snes_conv_reason:    3
  newton =   1 [     146] linear =   135 [     19443] cuts =  0 [   0]
  --> max chng: dpmx=   1.9136E+00 dtmpmx=   8.3309E-02

== TH FLOW =====================================================================
 Step    140 Time=  6.40000E+00 Dt=  5.00000E-02 [y] snes_conv_reason:    3
  newton =   1 [     147] linear =   136 [     19579] cuts =  0 [   0]
  --> max chng: dpmx=   1.9090E+00 dtmpmx=   8.2834E-02

== TH FLOW =====================================================================
 Step    141 Time=  6.45000E+00 Dt=  5.00000E-02 [y] snes_conv_reason:    3
  newton =   1 [     148] linear =   133 [     19712] cuts =  0 [   0]
  --> max chng: dpmx=   1.9045E+00 dtmpmx=   8.2404E-02

== TH FLOW =====================================================================
 Step    142 Time=  6.50000E+00 Dt=  5.00000E-02 [y] snes_conv_reason:    3
  newton =   1 [     149] linear =   136 [     19848] cuts =  0 [   0]
  --> max chng: dpmx=   1.8999E+00 dtmpmx=   8.2135E-02

== TH FLOW =====================================================================
 Step    143 Time=  6.55000E+00 Dt=  5.00000E-02 [y] snes_conv_reason:    3
  newton =   1 [     150] linear =   134 [     19982] cuts =  0 [   0]
  --> max chng: dpmx=   1.8952E+00 dtmpmx=   8.1685E-02

== TH FLOW =====================================================================
 Step    144 Time=  6.60000E+00 Dt=  5.00000E-02 [y] snes_conv_reason:    3
  newton =   1 [     151] linear =   128 [     20110] cuts =  0 [   0]
  --> max chng: dpmx=   1.8900E+00 dtmpmx=   8.1253E-02

== TH FLOW =====================================================================
 Step    145 Time=  6.65000E+00 Dt=  5.00000E-02 [y] snes_conv_reason:    3
  newton =   1 [     152] linear =   136 [     20246] cuts =  0 [   0]
  --> max chng: dpmx=   1.8864E+00 dtmpmx=   8.1001E-02

== TH FLOW =====================================================================
 Step    146 Time=  6.70000E+00 Dt=  5.00000E-02 [y] snes_conv_reason:    3
  newton =   1 [     153] linear =   135 [     20381] cuts =  0 [   0]
  --> max chng: dpmx=   1.8816E+00 dtmpmx=   8.0574E-02

== TH FLOW =====================================================================
 Step    147 Time=  6.75000E+00 Dt=  5.00000E-02 [y] snes_conv_reason:    3
  newton =   1 [     154] linear =   136 [     20517] cuts =  0 [   0]
  --> max chng: dpmx=   1.8762E+00 dtmpmx=   8.0140E-02

== TH FLOW =====================================================================
 Step    148 Time=  6.80000E+00 Dt=  5.00000E-02 [y] snes_conv_reason:    3
  newton =   1 [     155] linear =   131 [     20648] cuts =  0 [   0]
  --> max chng: dpmx=   1.8717E+00 dtmpmx=   7.9904E-02

== TH FLOW =====================================================================
 Step    149 Time=  6.85000E+00 Dt=  5.00000E-02 [y] snes_conv_reason:    3
  newton =   1 [     156] linear =   129 [     20777] cuts =  0 [   0]
  --> max chng: dpmx=   1.8677E+00 dtmpmx=   7.9499E-02

== TH FLOW =====================================================================
 Step    150 Time=  6.90000E+00 Dt=  5.00000E-02 [y] snes_conv_reason:    3
  newton =   1 [     157] linear =   131 [     20908] cuts =  0 [   0]
  --> max chng: dpmx=   1.8629E+00 dtmpmx=   7.9064E-02

== TH FLOW =====================================================================
 Step    151 Time=  6.95000E+00 Dt=  5.00000E-02 [y] snes_conv_reason:    3
  newton =   1 [     158] linear =   132 [     21040] cuts =  0 [   0]
  --> max chng: dpmx=   1.8587E+00 dtmpmx=   7.8842E-02

== TH FLOW =====================================================================
 Step    152 Time=  7.00000E+00 Dt=  5.00000E-02 [y] snes_conv_reason:    3
  newton =   1 [     159] linear =   137 [     21177] cuts =  0 [   0]
  --> max chng: dpmx=   1.8534E+00 dtmpmx=   7.8457E-02

== TH FLOW =====================================================================
 Step    153 Time=  7.05000E+00 Dt=  5.00000E-02 [y] snes_conv_reason:    3
  newton =   1 [     160] linear =   135 [     21312] cuts =  0 [   0]
  --> max chng: dpmx=   1.8495E+00 dtmpmx=   7.8022E-02

== TH FLOW =====================================================================
 Step    154 Time=  7.10000E+00 Dt=  5.00000E-02 [y] snes_conv_reason:    3
  newton =   1 [     161] linear =   134 [     21446] cuts =  0 [   0]
  --> max chng: dpmx=   1.8452E+00 dtmpmx=   7.7814E-02

== TH FLOW =====================================================================
 Step    155 Time=  7.15000E+00 Dt=  5.00000E-02 [y] snes_conv_reason:    3
  newton =   1 [     162] linear =   135 [     21581] cuts =  0 [   0]
  --> max chng: dpmx=   1.8399E+00 dtmpmx=   7.7448E-02

== TH FLOW =====================================================================
 Step    156 Time=  7.20000E+00 Dt=  5.00000E-02 [y] snes_conv_reason:    3
  newton =   1 [     163] linear =   132 [     21713] cuts =  0 [   0]
  --> max chng: dpmx=   1.8359E+00 dtmpmx=   7.7013E-02

== TH FLOW =====================================================================
 Step    157 Time=  7.25000E+00 Dt=  5.00000E-02 [y] snes_conv_reason:    3
  newton =   1 [     164] linear =   129 [     21842] cuts =  0 [   0]
  --> max chng: dpmx=   1.8310E+00 dtmpmx=   7.6818E-02

== TH FLOW =====================================================================
 Step    158 Time=  7.30000E+00 Dt=  5.00000E-02 [y] snes_conv_reason:    3
  newton =   1 [     165] linear =   132 [     21974] cuts =  0 [   0]
  --> max chng: dpmx=   1.8271E+00 dtmpmx=   7.6470E-02

== TH FLOW =====================================================================
 Step    159 Time=  7.35000E+00 Dt=  5.00000E-02 [y] snes_conv_reason:    3
  newton =   1 [     166] linear =   134 [     22108] cuts =  0 [   0]
  --> max chng: dpmx=   1.8216E+00 dtmpmx=   7.6034E-02

== TH FLOW =====================================================================
 Step    160 Time=  7.40000E+00 Dt=  5.00000E-02 [y] snes_conv_reason:    3
  newton =   1 [     167] linear =   134 [     22242] cuts =  0 [   0]
  --> max chng: dpmx=   1.8173E+00 dtmpmx=   7.5852E-02

== TH FLOW =====================================================================
 Step    161 Time=  7.45000E+00 Dt=  5.00000E-02 [y] snes_conv_reason:    3
  newton =   1 [     168] linear =   130 [     22372] cuts =  0 [   0]
  --> max chng: dpmx=   1.8139E+00 dtmpmx=   7.5521E-02

== TH FLOW =====================================================================
 Step    162 Time=  7.50000E+00 Dt=  5.00000E-02 [y] snes_conv_reason:    3
  newton =   1 [     169] linear =   136 [     22508] cuts =  0 [   0]
  --> max chng: dpmx=   1.8090E+00 dtmpmx=   7.5085E-02

== TH FLOW =====================================================================
 Step    163 Time=  7.55000E+00 Dt=  5.00000E-02 [y] snes_conv_reason:    3
  newton =   1 [     170] linear =   126 [     22634] cuts =  0 [   0]
  --> max chng: dpmx=   1.8044E+00 dtmpmx=   7.4914E-02

== TH FLOW =====================================================================
 Step    164 Time=  7.60000E+00 Dt=  5.00000E-02 [y] snes_conv_reason:    3
  newton =   1 [     171] linear =   136 [     22770] cuts =  0 [   0]
  --> max chng: dpmx=   1.7998E+00 dtmpmx=   7.4599E-02

== TH FLOW =====================================================================
 Step    165 Time=  7.65000E+00 Dt=  5.00000E-02 [y] snes_conv_reason:    3
  newton =   1 [     172] linear =   136 [     22906] cuts =  0 [   0]
  --> max chng: dpmx=   1.7955E+00 dtmpmx=   7.4164E-02

== TH FLOW =====================================================================
 Step    166 Time=  7.70000E+00 Dt=  5.00000E-02 [y] snes_conv_reason:    3
  newton =   1 [     173] linear =   134 [     23040] cuts =  0 [   0]
  --> max chng: dpmx=   1.7910E+00 dtmpmx=   7.4004E-02

== TH FLOW =====================================================================
 Step    167 Time=  7.75000E+00 Dt=  5.00000E-02 [y] snes_conv_reason:    3
  newton =   1 [     174] linear =   135 [     23175] cuts =  0 [   0]
  --> max chng: dpmx=   1.7868E+00 dtmpmx=   7.3703E-02

== TH FLOW =====================================================================
 Step    168 Time=  7.80000E+00 Dt=  5.00000E-02 [y] snes_conv_reason:    3
  newton =   1 [     175] linear =   133 [     23308] cuts =  0 [   0]
  --> max chng: dpmx=   1.7823E+00 dtmpmx=   7.3269E-02

== TH FLOW =====================================================================
 Step    169 Time=  7.85000E+00 Dt=  5.00000E-02 [y] snes_conv_reason:    3
  newton =   1 [     176] linear =   136 [     23444] cuts =  0 [   0]
  --> max chng: dpmx=   1.7777E+00 dtmpmx=   7.3119E-02

== TH FLOW =====================================================================
 Step    170 Time=  7.90000E+00 Dt=  5.00000E-02 [y] snes_conv_reason:    3
  newton =   1 [     177] linear =   135 [     23579] cuts =  0 [   0]
  --> max chng: dpmx=   1.7733E+00 dtmpmx=   7.2833E-02

== TH FLOW =====================================================================
 Step    171 Time=  7.95000E+00 Dt=  5.00000E-02 [y] snes_conv_reason:    3
  newton =   1 [     178] linear =   136 [     23715] cuts =  0 [   0]
  --> max chng: dpmx=   1.7692E+00 dtmpmx=   7.2414E-02

== TH FLOW =====================================================================
 Step    172 Time=  8.00000E+00 Dt=  5.00000E-02 [y] snes_conv_reason:    3
  newton =   1 [     179] linear =   133 [     23848] cuts =  0 [   0]
  --> max chng: dpmx=   1.7646E+00 dtmpmx=   7.2259E-02

== TH FLOW =====================================================================
 Step    173 Time=  8.05000E+00 Dt=  5.00000E-02 [y] snes_conv_reason:    3
  newton =   1 [     180] linear =   123 [     23971] cuts =  0 [   0]
  --> max chng: dpmx=   1.7597E+00 dtmpmx=   7.1986E-02

== TH FLOW =====================================================================
 Step    174 Time=  8.10000E+00 Dt=  5.00000E-02 [y] snes_conv_reason:    3
  newton =   1 [     181] linear =   134 [     24105] cuts =  0 [   0]
  --> max chng: dpmx=   1.7562E+00 dtmpmx=   7.1584E-02

== TH FLOW =====================================================================
 Step    175 Time=  8.15000E+00 Dt=  5.00000E-02 [y] snes_conv_reason:    3
  newton =   1 [     182] linear =   138 [     24243] cuts =  0 [   0]
  --> max chng: dpmx=   1.7515E+00 dtmpmx=   7.1423E-02

== TH FLOW =====================================================================
 Step    176 Time=  8.20000E+00 Dt=  5.00000E-02 [y] snes_conv_reason:    3
  newton =   1 [     183] linear =   139 [     24382] cuts =  0 [   0]
  --> max chng: dpmx=   1.7470E+00 dtmpmx=   7.1162E-02

== TH FLOW =====================================================================
 Step    177 Time=  8.25000E+00 Dt=  5.00000E-02 [y] snes_conv_reason:    3
  newton =   1 [     184] linear =   138 [     24520] cuts =  0 [   0]
  --> max chng: dpmx=   1.7431E+00 dtmpmx=   7.0777E-02

== TH FLOW =====================================================================
 Step    178 Time=  8.30000E+00 Dt=  5.00000E-02 [y] snes_conv_reason:    3
  newton =   1 [     185] linear =   133 [     24653] cuts =  0 [   0]
  --> max chng: dpmx=   1.7381E+00 dtmpmx=   7.0609E-02

== TH FLOW =====================================================================
 Step    179 Time=  8.35000E+00 Dt=  5.00000E-02 [y] snes_conv_reason:    3
  newton =   1 [     186] linear =   134 [     24787] cuts =  0 [   0]
  --> max chng: dpmx=   1.7341E+00 dtmpmx=   7.0360E-02

== TH FLOW =====================================================================
 Step    180 Time=  8.40000E+00 Dt=  5.00000E-02 [y] snes_conv_reason:    3
  newton =   1 [     187] linear =   134 [     24921] cuts =  0 [   0]
  --> max chng: dpmx=   1.7299E+00 dtmpmx=   6.9990E-02

== TH FLOW =====================================================================
 Step    181 Time=  8.45000E+00 Dt=  5.00000E-02 [y] snes_conv_reason:    3
  newton =   1 [     188] linear =   133 [     25054] cuts =  0 [   0]
  --> max chng: dpmx=   1.7251E+00 dtmpmx=   6.9816E-02

== TH FLOW =====================================================================
 Step    182 Time=  8.50000E+00 Dt=  5.00000E-02 [y] snes_conv_reason:    3
  newton =   1 [     189] linear =   139 [     25193] cuts =  0 [   0]
  --> max chng: dpmx=   1.7214E+00 dtmpmx=   6.9579E-02

== TH FLOW =====================================================================
 Step    183 Time=  8.55000E+00 Dt=  5.00000E-02 [y] snes_conv_reason:    3
  newton =   1 [     190] linear =   129 [     25322] cuts =  0 [   0]
  --> max chng: dpmx=   1.7165E+00 dtmpmx=   6.9223E-02

== TH FLOW =====================================================================
 Step    184 Time=  8.60000E+00 Dt=  5.00000E-02 [y] snes_conv_reason:    3
  newton =   1 [     191] linear =   134 [     25456] cuts =  0 [   0]
  --> max chng: dpmx=   1.7129E+00 dtmpmx=   6.9044E-02

== TH FLOW =====================================================================
 Step    185 Time=  8.65000E+00 Dt=  5.00000E-02 [y] snes_conv_reason:    3
  newton =   1 [     192] linear =   135 [     25591] cuts =  0 [   0]
  --> max chng: dpmx=   1.7080E+00 dtmpmx=   6.8817E-02

== TH FLOW =====================================================================
 Step    186 Time=  8.70000E+00 Dt=  5.00000E-02 [y] snes_conv_reason:    3
  newton =   1 [     193] linear =   137 [     25728] cuts =  0 [   0]
  --> max chng: dpmx=   1.7039E+00 dtmpmx=   6.8475E-02

== TH FLOW =====================================================================
 Step    187 Time=  8.75000E+00 Dt=  5.00000E-02 [y] snes_conv_reason:    3
  newton =   1 [     194] linear =   130 [     25858] cuts =  0 [   0]
  --> max chng: dpmx=   1.6993E+00 dtmpmx=   6.8292E-02

== TH FLOW =====================================================================
 Step    188 Time=  8.80000E+00 Dt=  5.00000E-02 [y] snes_conv_reason:    3
  newton =   1 [     195] linear =   132 [     25990] cuts =  0 [   0]
  --> max chng: dpmx=   1.6956E+00 dtmpmx=   6.8075E-02

== TH FLOW =====================================================================
 Step    189 Time=  8.85000E+00 Dt=  5.00000E-02 [y] snes_conv_reason:    3
  newton =   1 [     196] linear =   133 [     26123] cuts =  0 [   0]
  --> max chng: dpmx=   1.6906E+00 dtmpmx=   6.7746E-02

== TH FLOW =====================================================================
 Step    190 Time=  8.90000E+00 Dt=  5.00000E-02 [y] snes_conv_reason:    3
  newton =   1 [     197] linear =   135 [     26258] cuts =  0 [   0]
  --> max chng: dpmx=   1.6871E+00 dtmpmx=   6.7558E-02

== TH FLOW =====================================================================
 Step    191 Time=  8.95000E+00 Dt=  5.00000E-02 [y] snes_conv_reason:    3
  newton =   1 [     198] linear =   128 [     26386] cuts =  0 [   0]
  --> max chng: dpmx=   1.6821E+00 dtmpmx=   6.7351E-02

== TH FLOW =====================================================================
 Step    192 Time=  9.00000E+00 Dt=  5.00000E-02 [y] snes_conv_reason:    3
  newton =   1 [     199] linear =   128 [     26514] cuts =  0 [   0]
  --> max chng: dpmx=   1.6780E+00 dtmpmx=   6.7035E-02

== TH FLOW =====================================================================
 Step    193 Time=  9.05000E+00 Dt=  5.00000E-02 [y] snes_conv_reason:    3
  newton =   1 [     200] linear =   130 [     26644] cuts =  0 [   0]
  --> max chng: dpmx=   1.6741E+00 dtmpmx=   6.6843E-02

== TH FLOW =====================================================================
 Step    194 Time=  9.10000E+00 Dt=  5.00000E-02 [y] snes_conv_reason:    3
  newton =   1 [     201] linear =   134 [     26778] cuts =  0 [   0]
  --> max chng: dpmx=   1.6689E+00 dtmpmx=   6.6645E-02

== TH FLOW =====================================================================
 Step    195 Time=  9.15000E+00 Dt=  5.00000E-02 [y] snes_conv_reason:    3
  newton =   1 [     202] linear =   134 [     26912] cuts =  0 [   0]
  --> max chng: dpmx=   1.6659E+00 dtmpmx=   6.6340E-02

== TH FLOW =====================================================================
 Step    196 Time=  9.20000E+00 Dt=  5.00000E-02 [y] snes_conv_reason:    3
  newton =   1 [     203] linear =   133 [     27045] cuts =  0 [   0]
  --> max chng: dpmx=   1.6608E+00 dtmpmx=   6.6144E-02

== TH FLOW =====================================================================
 Step    197 Time=  9.25000E+00 Dt=  5.00000E-02 [y] snes_conv_reason:    3
  newton =   1 [     204] linear =   132 [     27177] cuts =  0 [   0]
  --> max chng: dpmx=   1.6566E+00 dtmpmx=   6.5955E-02

== TH FLOW =====================================================================
 Step    198 Time=  9.30000E+00 Dt=  5.00000E-02 [y] snes_conv_reason:    3
  newton =   1 [     205] linear =   129 [     27306] cuts =  0 [   0]
  --> max chng: dpmx=   1.6531E+00 dtmpmx=   6.5662E-02

== TH FLOW =====================================================================
 Step    199 Time=  9.35000E+00 Dt=  5.00000E-02 [y] snes_conv_reason:    3
  newton =   1 [     206] linear =   134 [     27440] cuts =  0 [   0]
  --> max chng: dpmx=   1.6481E+00 dtmpmx=   6.5463E-02

== TH FLOW =====================================================================
 Step    200 Time=  9.40000E+00 Dt=  5.00000E-02 [y] snes_conv_reason:    3
  newton =   1 [     207] linear =   135 [     27575] cuts =  0 [   0]
  --> max chng: dpmx=   1.6440E+00 dtmpmx=   6.5282E-02

== TH FLOW =====================================================================
 Step    201 Time=  9.45000E+00 Dt=  5.00000E-02 [y] snes_conv_reason:    3
  newton =   1 [     208] linear =   133 [     27708] cuts =  0 [   0]
  --> max chng: dpmx=   1.6396E+00 dtmpmx=   6.4999E-02

== TH FLOW =====================================================================
 Step    202 Time=  9.50000E+00 Dt=  5.00000E-02 [y] snes_conv_reason:    3
  newton =   1 [     209] linear =   130 [     27838] cuts =  0 [   0]
  --> max chng: dpmx=   1.6359E+00 dtmpmx=   6.4797E-02

== TH FLOW =====================================================================
 Step    203 Time=  9.55000E+00 Dt=  5.00000E-02 [y] snes_conv_reason:    3
  newton =   1 [     210] linear =   132 [     27970] cuts =  0 [   0]
  --> max chng: dpmx=   1.6311E+00 dtmpmx=   6.4624E-02

== TH FLOW =====================================================================
 Step    204 Time=  9.60000E+00 Dt=  5.00000E-02 [y] snes_conv_reason:    3
  newton =   1 [     211] linear =   128 [     28098] cuts =  0 [   0]
  --> max chng: dpmx=   1.6274E+00 dtmpmx=   6.4352E-02

== TH FLOW =====================================================================
 Step    205 Time=  9.65000E+00 Dt=  5.00000E-02 [y] snes_conv_reason:    3
  newton =   1 [     212] linear =   133 [     28231] cuts =  0 [   0]
  --> max chng: dpmx=   1.6226E+00 dtmpmx=   6.4147E-02

== TH FLOW =====================================================================
 Step    206 Time=  9.70000E+00 Dt=  5.00000E-02 [y] snes_conv_reason:    3
  newton =   1 [     213] linear =   131 [     28362] cuts =  0 [   0]
  --> max chng: dpmx=   1.6189E+00 dtmpmx=   6.3981E-02

== TH FLOW =====================================================================
 Step    207 Time=  9.75000E+00 Dt=  5.00000E-02 [y] snes_conv_reason:    3
  newton =   1 [     214] linear =   132 [     28494] cuts =  0 [   0]
  --> max chng: dpmx=   1.6139E+00 dtmpmx=   6.3719E-02

== TH FLOW =====================================================================
 Step    208 Time=  9.80000E+00 Dt=  5.00000E-02 [y] snes_conv_reason:    3
  newton =   1 [     215] linear =   133 [     28627] cuts =  0 [   0]
  --> max chng: dpmx=   1.6101E+00 dtmpmx=   6.3512E-02

== TH FLOW =====================================================================
 Step    209 Time=  9.85000E+00 Dt=  5.00000E-02 [y] snes_conv_reason:    3
  newton =   1 [     216] linear =   133 [     28760] cuts =  0 [   0]
  --> max chng: dpmx=   1.6065E+00 dtmpmx=   6.3353E-02

== TH FLOW =====================================================================
 Step    210 Time=  9.90000E+00 Dt=  5.00000E-02 [y] snes_conv_reason:    3
  newton =   1 [     217] linear =   134 [     28894] cuts =  0 [   0]
  --> max chng: dpmx=   1.6016E+00 dtmpmx=   6.3100E-02

== TH FLOW =====================================================================
 Step    211 Time=  9.95000E+00 Dt=  5.00000E-02 [y] snes_conv_reason:    3
  newton =   1 [     218] linear =   133 [     29027] cuts =  0 [   0]
  --> max chng: dpmx=   1.5977E+00 dtmpmx=   6.2890E-02

== TH FLOW =====================================================================
 Step    212 Time=  1.00000E+01 Dt=  5.00000E-02 [y] snes_conv_reason:    3
  newton =   1 [     219] linear =   121 [     29148] cuts =  0 [   0]
  --> max chng: dpmx=   1.5936E+00 dtmpmx=   6.2739E-02

== TH FLOW =====================================================================
 Step    213 Time=  1.00500E+01 Dt=  5.00000E-02 [y] snes_conv_reason:    3
  newton =   1 [     220] linear =   129 [     29277] cuts =  0 [   0]
  --> max chng: dpmx=   1.5891E+00 dtmpmx=   6.2494E-02

== TH FLOW =====================================================================
 Step    214 Time=  1.01000E+01 Dt=  5.00000E-02 [y] snes_conv_reason:    3
  newton =   1 [     221] linear =   131 [     29408] cuts =  0 [   0]
  --> max chng: dpmx=   1.5848E+00 dtmpmx=   6.2283E-02

== TH FLOW =====================================================================
 Step    215 Time=  1.01500E+01 Dt=  5.00000E-02 [y] snes_conv_reason:    3
  newton =   1 [     222] linear =   133 [     29541] cuts =  0 [   0]
  --> max chng: dpmx=   1.5811E+00 dtmpmx=   6.2137E-02

== TH FLOW =====================================================================
 Step    216 Time=  1.02000E+01 Dt=  5.00000E-02 [y] snes_conv_reason:    3
  newton =   1 [     223] linear =   131 [     29672] cuts =  0 [   0]
  --> max chng: dpmx=   1.5761E+00 dtmpmx=   6.1902E-02

== TH FLOW =====================================================================
 Step    217 Time=  1.02500E+01 Dt=  5.00000E-02 [y] snes_conv_reason:    3
  newton =   1 [     224] linear =   131 [     29803] cuts =  0 [   0]
  --> max chng: dpmx=   1.5731E+00 dtmpmx=   6.1689E-02

== TH FLOW =====================================================================
 Step    218 Time=  1.03000E+01 Dt=  5.00000E-02 [y] snes_conv_reason:    3
  newton =   1 [     225] linear =   135 [     29938] cuts =  0 [   0]
  --> max chng: dpmx=   1.5680E+00 dtmpmx=   6.1549E-02

== TH FLOW =====================================================================
 Step    219 Time=  1.03500E+01 Dt=  5.00000E-02 [y] snes_conv_reason:    3
  newton =   1 [     226] linear =   131 [     30069] cuts =  0 [   0]
  --> max chng: dpmx=   1.5643E+00 dtmpmx=   6.1322E-02

== TH FLOW =====================================================================
 Step    220 Time=  1.04000E+01 Dt=  5.00000E-02 [y] snes_conv_reason:    3
  newton =   1 [     227] linear =   131 [     30200] cuts =  0 [   0]
  --> max chng: dpmx=   1.5600E+00 dtmpmx=   6.1107E-02

== TH FLOW =====================================================================
 Step    221 Time=  1.04500E+01 Dt=  5.00000E-02 [y] snes_conv_reason:    3
  newton =   1 [     228] linear =   132 [     30332] cuts =  0 [   0]
  --> max chng: dpmx=   1.5555E+00 dtmpmx=   6.0974E-02

== TH FLOW =====================================================================
 Step    222 Time=  1.05000E+01 Dt=  5.00000E-02 [y] snes_conv_reason:    3
  newton =   1 [     229] linear =   133 [     30465] cuts =  0 [   0]
  --> max chng: dpmx=   1.5518E+00 dtmpmx=   6.0754E-02

== TH FLOW =====================================================================
 Step    223 Time=  1.05500E+01 Dt=  5.00000E-02 [y] snes_conv_reason:    3
  newton =   1 [     230] linear =   133 [     30598] cuts =  0 [   0]
  --> max chng: dpmx=   1.5467E+00 dtmpmx=   6.0538E-02

== TH FLOW =====================================================================
 Step    224 Time=  1.06000E+01 Dt=  5.00000E-02 [y] snes_conv_reason:    3
  newton =   1 [     231] linear =   135 [     30733] cuts =  0 [   0]
  --> max chng: dpmx=   1.5434E+00 dtmpmx=   6.0410E-02

== TH FLOW =====================================================================
 Step    225 Time=  1.06500E+01 Dt=  5.00000E-02 [y] snes_conv_reason:    3
  newton =   1 [     232] linear =   135 [     30868] cuts =  0 [   0]
  --> max chng: dpmx=   1.5392E+00 dtmpmx=   6.0198E-02

== TH FLOW =====================================================================
 Step    226 Time=  1.07000E+01 Dt=  5.00000E-02 [y] snes_conv_reason:    3
  newton =   1 [     233] linear =   136 [     31004] cuts =  0 [   0]
  --> max chng: dpmx=   1.5349E+00 dtmpmx=   5.9980E-02

== TH FLOW =====================================================================
 Step    227 Time=  1.07500E+01 Dt=  5.00000E-02 [y] snes_conv_reason:    3
  newton =   1 [     234] linear =   134 [     31138] cuts =  0 [   0]
  --> max chng: dpmx=   1.5308E+00 dtmpmx=   5.9858E-02

== TH FLOW =====================================================================
 Step    228 Time=  1.08000E+01 Dt=  5.00000E-02 [y] snes_conv_reason:    3
  newton =   1 [     235] linear =   129 [     31267] cuts =  0 [   0]
  --> max chng: dpmx=   1.5266E+00 dtmpmx=   5.9653E-02

== TH FLOW =====================================================================
 Step    229 Time=  1.08500E+01 Dt=  5.00000E-02 [y] snes_conv_reason:    3
  newton =   1 [     236] linear =   135 [     31402] cuts =  0 [   0]
  --> max chng: dpmx=   1.5225E+00 dtmpmx=   5.9434E-02

== TH FLOW =====================================================================
 Step    230 Time=  1.09000E+01 Dt=  5.00000E-02 [y] snes_conv_reason:    3
  newton =   1 [     237] linear =   134 [     31536] cuts =  0 [   0]
  --> max chng: dpmx=   1.5183E+00 dtmpmx=   5.9317E-02

== TH FLOW =====================================================================
 Step    231 Time=  1.09500E+01 Dt=  5.00000E-02 [y] snes_conv_reason:    3
  newton =   1 [     238] linear =   131 [     31667] cuts =  0 [   0]
  --> max chng: dpmx=   1.5138E+00 dtmpmx=   5.9119E-02

== TH FLOW =====================================================================
 Step    232 Time=  1.10000E+01 Dt=  5.00000E-02 [y] snes_conv_reason:    3
  newton =   1 [     239] linear =   135 [     31802] cuts =  0 [   0]
  --> max chng: dpmx=   1.5104E+00 dtmpmx=   5.8899E-02

== TH FLOW =====================================================================
 Step    233 Time=  1.10500E+01 Dt=  5.00000E-02 [y] snes_conv_reason:    3
  newton =   1 [     240] linear =   130 [     31932] cuts =  0 [   0]
  --> max chng: dpmx=   1.5059E+00 dtmpmx=   5.8787E-02

== TH FLOW =====================================================================
 Step    234 Time=  1.11000E+01 Dt=  5.00000E-02 [y] snes_conv_reason:    3
  newton =   1 [     241] linear =   130 [     32062] cuts =  0 [   0]
  --> max chng: dpmx=   1.5016E+00 dtmpmx=   5.8595E-02

== TH FLOW =====================================================================
 Step    235 Time=  1.11500E+01 Dt=  5.00000E-02 [y] snes_conv_reason:    3
  newton =   1 [     242] linear =   130 [     32192] cuts =  0 [   0]
  --> max chng: dpmx=   1.4975E+00 dtmpmx=   5.8375E-02

== TH FLOW =====================================================================
 Step    236 Time=  1.12000E+01 Dt=  5.00000E-02 [y] snes_conv_reason:    3
  newton =   1 [     243] linear =   135 [     32327] cuts =  0 [   0]
  --> max chng: dpmx=   1.4938E+00 dtmpmx=   5.8267E-02

== TH FLOW =====================================================================
 Step    237 Time=  1.12500E+01 Dt=  5.00000E-02 [y] snes_conv_reason:    3
  newton =   1 [     244] linear =   135 [     32462] cuts =  0 [   0]
  --> max chng: dpmx=   1.4892E+00 dtmpmx=   5.8082E-02

== TH FLOW =====================================================================
 Step    238 Time=  1.13000E+01 Dt=  5.00000E-02 [y] snes_conv_reason:    3
  newton =   1 [     245] linear =   134 [     32596] cuts =  0 [   0]
  --> max chng: dpmx=   1.4853E+00 dtmpmx=   5.7861E-02

== TH FLOW =====================================================================
 Step    239 Time=  1.13500E+01 Dt=  5.00000E-02 [y] snes_conv_reason:    3
  newton =   1 [     246] linear =   132 [     32728] cuts =  0 [   0]
  --> max chng: dpmx=   1.4812E+00 dtmpmx=   5.7758E-02

== TH FLOW =====================================================================
 Step    240 Time=  1.14000E+01 Dt=  5.00000E-02 [y] snes_conv_reason:    3
  newton =   1 [     247] linear =   137 [     32865] cuts =  0 [   0]
  --> max chng: dpmx=   1.4768E+00 dtmpmx=   5.7579E-02

== TH FLOW =====================================================================
 Step    241 Time=  1.14500E+01 Dt=  5.00000E-02 [y] snes_conv_reason:    3
  newton =   1 [     248] linear =   133 [     32998] cuts =  0 [   0]
  --> max chng: dpmx=   1.4728E+00 dtmpmx=   5.7358E-02

== TH FLOW =====================================================================
 Step    242 Time=  1.15000E+01 Dt=  5.00000E-02 [y] snes_conv_reason:    3
  newton =   1 [     249] linear =   140 [     33138] cuts =  0 [   0]
  --> max chng: dpmx=   1.4689E+00 dtmpmx=   5.7259E-02

== TH FLOW =====================================================================
 Step    243 Time=  1.15500E+01 Dt=  5.00000E-02 [y] snes_conv_reason:    3
  newton =   1 [     250] linear =   142 [     33280] cuts =  0 [   0]
  --> max chng: dpmx=   1.4646E+00 dtmpmx=   5.7085E-02

== TH FLOW =====================================================================
 Step    244 Time=  1.16000E+01 Dt=  5.00000E-02 [y] snes_conv_reason:    3
  newton =   1 [     251] linear =   134 [     33414] cuts =  0 [   0]
  --> max chng: dpmx=   1.4607E+00 dtmpmx=   5.6864E-02

== TH FLOW =====================================================================
 Step    245 Time=  1.16500E+01 Dt=  5.00000E-02 [y] snes_conv_reason:    3
  newton =   1 [     252] linear =   133 [     33547] cuts =  0 [   0]
  --> max chng: dpmx=   1.4561E+00 dtmpmx=   5.6769E-02

== TH FLOW =====================================================================
 Step    246 Time=  1.17000E+01 Dt=  5.00000E-02 [y] snes_conv_reason:    3
  newton =   1 [     253] linear =   135 [     33682] cuts =  0 [   0]
  --> max chng: dpmx=   1.4525E+00 dtmpmx=   5.6601E-02

== TH FLOW =====================================================================
 Step    247 Time=  1.17500E+01 Dt=  5.00000E-02 [y] snes_conv_reason:    3
  newton =   1 [     254] linear =   133 [     33815] cuts =  0 [   0]
  --> max chng: dpmx=   1.4481E+00 dtmpmx=   5.6379E-02

== TH FLOW =====================================================================
 Step    248 Time=  1.18000E+01 Dt=  5.00000E-02 [y] snes_conv_reason:    3
  newton =   1 [     255] linear =   135 [     33950] cuts =  0 [   0]
  --> max chng: dpmx=   1.4439E+00 dtmpmx=   5.6288E-02

== TH FLOW =====================================================================
 Step    249 Time=  1.18500E+01 Dt=  5.00000E-02 [y] snes_conv_reason:    3
  newton =   1 [     256] linear =   136 [     34086] cuts =  0 [   0]
  --> max chng: dpmx=   1.4400E+00 dtmpmx=   5.6125E-02

== TH FLOW =====================================================================
 Step    250 Time=  1.19000E+01 Dt=  5.00000E-02 [y] snes_conv_reason:    3
  newton =   1 [     257] linear =   134 [     34220] cuts =  0 [   0]
  --> max chng: dpmx=   1.4357E+00 dtmpmx=   5.5903E-02

== TH FLOW =====================================================================
 Step    251 Time=  1.19500E+01 Dt=  5.00000E-02 [y] snes_conv_reason:    3
  newton =   1 [     258] linear =   132 [     34352] cuts =  0 [   0]
  --> max chng: dpmx=   1.4315E+00 dtmpmx=   5.5816E-02

== TH FLOW =====================================================================
 Step    252 Time=  1.20000E+01 Dt=  5.00000E-02 [y] snes_conv_reason:    3
  newton =   1 [     259] linear =   135 [     34487] cuts =  0 [   0]
  --> max chng: dpmx=   1.4276E+00 dtmpmx=   5.5659E-02

== TH FLOW =====================================================================
 Step    253 Time=  1.20500E+01 Dt=  5.00000E-02 [y] snes_conv_reason:    3
  newton =   1 [     260] linear =   133 [     34620] cuts =  0 [   0]
  --> max chng: dpmx=   1.4235E+00 dtmpmx=   5.5437E-02

== TH FLOW =====================================================================
 Step    254 Time=  1.21000E+01 Dt=  5.00000E-02 [y] snes_conv_reason:    3
  newton =   1 [     261] linear =   133 [     34753] cuts =  0 [   0]
  --> max chng: dpmx=   1.4195E+00 dtmpmx=   5.5353E-02

== TH FLOW =====================================================================
 Step    255 Time=  1.21500E+01 Dt=  5.00000E-02 [y] snes_conv_reason:    3
  newton =   1 [     262] linear =   131 [     34884] cuts =  0 [   0]
  --> max chng: dpmx=   1.4155E+00 dtmpmx=   5.5200E-02

== TH FLOW =====================================================================
 Step    256 Time=  1.22000E+01 Dt=  5.00000E-02 [y] snes_conv_reason:    3
  newton =   1 [     263] linear =   133 [     35017] cuts =  0 [   0]
  --> max chng: dpmx=   1.4111E+00 dtmpmx=   5.4980E-02

== TH FLOW =====================================================================
 Step    257 Time=  1.22500E+01 Dt=  5.00000E-02 [y] snes_conv_reason:    3
  newton =   1 [     264] linear =   135 [     35152] cuts =  0 [   0]
  --> max chng: dpmx=   1.4074E+00 dtmpmx=   5.4898E-02

[...]
 Step    493 Time=  2.40500E+01 Dt=  5.00000E-02 [y] snes_conv_reason:    3
  newton =   1 [     500] linear =   128 [     66318] cuts =  0 [   0]
  --> max chng: dpmx=   1.7010E+00 dtmpmx=   3.3920E-02

== TH FLOW =====================================================================
 Step    494 Time=  2.41000E+01 Dt=  5.00000E-02 [y] snes_conv_reason:    3
  newton =   1 [     501] linear =   130 [     66448] cuts =  0 [   0]
  --> max chng: dpmx=   1.7046E+00 dtmpmx=   3.3848E-02

== TH FLOW =====================================================================
 Step    495 Time=  2.41500E+01 Dt=  5.00000E-02 [y] snes_conv_reason:    3
  newton =   1 [     502] linear =   130 [     66578] cuts =  0 [   0]
  --> max chng: dpmx=   1.7081E+00 dtmpmx=   3.3810E-02

== TH FLOW =====================================================================
 Step    496 Time=  2.42000E+01 Dt=  5.00000E-02 [y] snes_conv_reason:    3
  newton =   1 [     503] linear =   129 [     66707] cuts =  0 [   0]
  --> max chng: dpmx=   1.7116E+00 dtmpmx=   3.3760E-02

== TH FLOW =====================================================================
 Step    497 Time=  2.42500E+01 Dt=  5.00000E-02 [y] snes_conv_reason:    3
  newton =   1 [     504] linear =   130 [     66837] cuts =  0 [   0]
  --> max chng: dpmx=   1.7154E+00 dtmpmx=   3.3688E-02

== TH FLOW =====================================================================
 Step    498 Time=  2.43000E+01 Dt=  5.00000E-02 [y] snes_conv_reason:    3
  newton =   1 [     505] linear =   131 [     66968] cuts =  0 [   0]
  --> max chng: dpmx=   1.7188E+00 dtmpmx=   3.3650E-02

== TH FLOW =====================================================================
 Step    499 Time=  2.43500E+01 Dt=  5.00000E-02 [y] snes_conv_reason:    3
  newton =   1 [     506] linear =   134 [     67102] cuts =  0 [   0]
  --> max chng: dpmx=   1.7224E+00 dtmpmx=   3.3601E-02

== TH FLOW =====================================================================
 Step    500 Time=  2.44000E+01 Dt=  5.00000E-02 [y] snes_conv_reason:    3
  newton =   1 [     507] linear =   135 [     67237] cuts =  0 [   0]
  --> max chng: dpmx=   1.7260E+00 dtmpmx=   3.3530E-02

== TH FLOW =====================================================================
 Step    501 Time=  2.44500E+01 Dt=  5.00000E-02 [y] snes_conv_reason:    3
  newton =   1 [     508] linear =   137 [     67374] cuts =  0 [   0]
  --> max chng: dpmx=   1.7296E+00 dtmpmx=   3.3493E-02

== TH FLOW =====================================================================
 Step    502 Time=  2.45000E+01 Dt=  5.00000E-02 [y] snes_conv_reason:    3
  newton =   1 [     509] linear =   134 [     67508] cuts =  0 [   0]
  --> max chng: dpmx=   1.7331E+00 dtmpmx=   3.3444E-02

== TH FLOW =====================================================================
 Step    503 Time=  2.45500E+01 Dt=  5.00000E-02 [y] snes_conv_reason:    3
  newton =   1 [     510] linear =   134 [     67642] cuts =  0 [   0]
  --> max chng: dpmx=   1.7368E+00 dtmpmx=   3.3373E-02

== TH FLOW =====================================================================
 Step    504 Time=  2.46000E+01 Dt=  5.00000E-02 [y] snes_conv_reason:    3
  newton =   1 [     511] linear =   132 [     67774] cuts =  0 [   0]
  --> max chng: dpmx=   1.7404E+00 dtmpmx=   3.3336E-02

== TH FLOW =====================================================================
 Step    505 Time=  2.46500E+01 Dt=  5.00000E-02 [y] snes_conv_reason:    3
  newton =   1 [     512] linear =   132 [     67906] cuts =  0 [   0]
  --> max chng: dpmx=   1.7439E+00 dtmpmx=   3.3288E-02

== TH FLOW =====================================================================
 Step    506 Time=  2.47000E+01 Dt=  5.00000E-02 [y] snes_conv_reason:    3
  newton =   1 [     513] linear =   127 [     68033] cuts =  0 [   0]
  --> max chng: dpmx=   1.7476E+00 dtmpmx=   3.3218E-02

== TH FLOW =====================================================================
 Step    507 Time=  2.47500E+01 Dt=  5.00000E-02 [y] snes_conv_reason:    3
  newton =   1 [     514] linear =   130 [     68163] cuts =  0 [   0]
  --> max chng: dpmx=   1.7514E+00 dtmpmx=   3.3182E-02

== TH FLOW =====================================================================
 Step    508 Time=  2.48000E+01 Dt=  5.00000E-02 [y] snes_conv_reason:    3
  newton =   1 [     515] linear =   131 [     68294] cuts =  0 [   0]
  --> max chng: dpmx=   1.7543E+00 dtmpmx=   3.3134E-02

== TH FLOW =====================================================================
 Step    509 Time=  2.48500E+01 Dt=  5.00000E-02 [y] snes_conv_reason:    3
  newton =   1 [     516] linear =   125 [     68419] cuts =  0 [   0]
  --> max chng: dpmx=   1.7585E+00 dtmpmx=   3.3065E-02

== TH FLOW =====================================================================
 Step    510 Time=  2.49000E+01 Dt=  5.00000E-02 [y] snes_conv_reason:    3
  newton =   1 [     517] linear =   122 [     68541] cuts =  0 [   0]
  --> max chng: dpmx=   1.7621E+00 dtmpmx=   3.3029E-02

== TH FLOW =====================================================================
 Step    511 Time=  2.49500E+01 Dt=  5.00000E-02 [y] snes_conv_reason:    3
  newton =   1 [     518] linear =   130 [     68671] cuts =  0 [   0]
  --> max chng: dpmx=   1.7654E+00 dtmpmx=   3.2981E-02

== TH FLOW =====================================================================
 Step    512 Time=  2.50000E+01 Dt=  5.00000E-02 [y] snes_conv_reason:    3
  newton =   1 [     519] linear =   130 [     68801] cuts =  0 [   0]
  --> max chng: dpmx=   1.7692E+00 dtmpmx=   3.2912E-02

== TH FLOW =====================================================================
 Step    513 Time=  2.50500E+01 Dt=  5.00000E-02 [y] snes_conv_reason:    3
  newton =   1 [     520] linear =   129 [     68930] cuts =  0 [   0]
  --> max chng: dpmx=   1.7728E+00 dtmpmx=   3.2877E-02

== TH FLOW =====================================================================
 Step    514 Time=  2.51000E+01 Dt=  5.00000E-02 [y] snes_conv_reason:    3
  newton =   1 [     521] linear =   132 [     69062] cuts =  0 [   0]
  --> max chng: dpmx=   1.7762E+00 dtmpmx=   3.2830E-02

== TH FLOW =====================================================================
 Step    515 Time=  2.51500E+01 Dt=  5.00000E-02 [y] snes_conv_reason:    3
  newton =   1 [     522] linear =   132 [     69194] cuts =  0 [   0]
  --> max chng: dpmx=   1.7799E+00 dtmpmx=   3.2762E-02

== TH FLOW =====================================================================
 Step    516 Time=  2.52000E+01 Dt=  5.00000E-02 [y] snes_conv_reason:    3
  newton =   1 [     523] linear =   130 [     69324] cuts =  0 [   0]
  --> max chng: dpmx=   1.7836E+00 dtmpmx=   3.2727E-02

== TH FLOW =====================================================================
 Step    517 Time=  2.52500E+01 Dt=  5.00000E-02 [y] snes_conv_reason:    3
  newton =   1 [     524] linear =   131 [     69455] cuts =  0 [   0]
  --> max chng: dpmx=   1.7872E+00 dtmpmx=   3.2680E-02

== TH FLOW =====================================================================
 Step    518 Time=  2.53000E+01 Dt=  5.00000E-02 [y] snes_conv_reason:    3
  newton =   1 [     525] linear =   130 [     69585] cuts =  0 [   0]
  --> max chng: dpmx=   1.7907E+00 dtmpmx=   3.2612E-02

== TH FLOW =====================================================================
 Step    519 Time=  2.53500E+01 Dt=  5.00000E-02 [y] snes_conv_reason:    3
  newton =   1 [     526] linear =   130 [     69715] cuts =  0 [   0]
  --> max chng: dpmx=   1.7943E+00 dtmpmx=   3.2578E-02

== TH FLOW =====================================================================
 Step    520 Time=  2.54000E+01 Dt=  5.00000E-02 [y] snes_conv_reason:    3
  newton =   1 [     527] linear =   134 [     69849] cuts =  0 [   0]
  --> max chng: dpmx=   1.7983E+00 dtmpmx=   3.2531E-02

== TH FLOW =====================================================================
 Step    521 Time=  2.54500E+01 Dt=  5.00000E-02 [y] snes_conv_reason:    3
  newton =   1 [     528] linear =   124 [     69973] cuts =  0 [   0]
  --> max chng: dpmx=   1.8013E+00 dtmpmx=   3.2464E-02

== TH FLOW =====================================================================
 Step    522 Time=  2.55000E+01 Dt=  5.00000E-02 [y] snes_conv_reason:    3
  newton =   1 [     529] linear =   125 [     70098] cuts =  0 [   0]
  --> max chng: dpmx=   1.8054E+00 dtmpmx=   3.2430E-02

== TH FLOW =====================================================================
 Step    523 Time=  2.55500E+01 Dt=  5.00000E-02 [y] snes_conv_reason:    3
  newton =   1 [     530] linear =   130 [     70228] cuts =  0 [   0]
  --> max chng: dpmx=   1.8090E+00 dtmpmx=   3.2384E-02

== TH FLOW =====================================================================
 Step    524 Time=  2.56000E+01 Dt=  5.00000E-02 [y] snes_conv_reason:    3
  newton =   1 [     531] linear =   129 [     70357] cuts =  0 [   0]
  --> max chng: dpmx=   1.8124E+00 dtmpmx=   3.2318E-02

== TH FLOW =====================================================================
 Step    525 Time=  2.56500E+01 Dt=  5.00000E-02 [y] snes_conv_reason:    3
  newton =   1 [     532] linear =   131 [     70488] cuts =  0 [   0]
  --> max chng: dpmx=   1.8161E+00 dtmpmx=   3.2284E-02

== TH FLOW =====================================================================
 Step    526 Time=  2.57000E+01 Dt=  5.00000E-02 [y] snes_conv_reason:    3
  newton =   1 [     533] linear =   132 [     70620] cuts =  0 [   0]
  --> max chng: dpmx=   1.8198E+00 dtmpmx=   3.2238E-02

== TH FLOW =====================================================================
 Step    527 Time=  2.57500E+01 Dt=  5.00000E-02 [y] snes_conv_reason:    3
  newton =   1 [     534] linear =   129 [     70749] cuts =  0 [   0]
  --> max chng: dpmx=   1.8235E+00 dtmpmx=   3.2173E-02

== TH FLOW =====================================================================
 Step    528 Time=  2.58000E+01 Dt=  5.00000E-02 [y] snes_conv_reason:    3
  newton =   1 [     535] linear =   130 [     70879] cuts =  0 [   0]
  --> max chng: dpmx=   1.8267E+00 dtmpmx=   3.2139E-02

== TH FLOW =====================================================================
 Step    529 Time=  2.58500E+01 Dt=  5.00000E-02 [y] snes_conv_reason:    3
  newton =   1 [     536] linear =   131 [     71010] cuts =  0 [   0]
  --> max chng: dpmx=   1.8308E+00 dtmpmx=   3.2094E-02

== TH FLOW =====================================================================
 Step    530 Time=  2.59000E+01 Dt=  5.00000E-02 [y] snes_conv_reason:    3
  newton =   1 [     537] linear =   134 [     71144] cuts =  0 [   0]
  --> max chng: dpmx=   1.8342E+00 dtmpmx=   3.2029E-02

== TH FLOW =====================================================================
 Step    531 Time=  2.59500E+01 Dt=  5.00000E-02 [y] snes_conv_reason:    3
  newton =   1 [     538] linear =   136 [     71280] cuts =  0 [   0]
  --> max chng: dpmx=   1.8378E+00 dtmpmx=   3.1996E-02

== TH FLOW =====================================================================
 Step    532 Time=  2.60000E+01 Dt=  5.00000E-02 [y] snes_conv_reason:    3
  newton =   1 [     539] linear =   130 [     71410] cuts =  0 [   0]
  --> max chng: dpmx=   1.8414E+00 dtmpmx=   3.1951E-02

== TH FLOW =====================================================================
 Step    533 Time=  2.60500E+01 Dt=  5.00000E-02 [y] snes_conv_reason:    3
  newton =   1 [     540] linear =   130 [     71540] cuts =  0 [   0]
  --> max chng: dpmx=   1.8452E+00 dtmpmx=   3.1886E-02

== TH FLOW =====================================================================
 Step    534 Time=  2.61000E+01 Dt=  5.00000E-02 [y] snes_conv_reason:    3
  newton =   1 [     541] linear =   130 [     71670] cuts =  0 [   0]
  --> max chng: dpmx=   1.8485E+00 dtmpmx=   3.1854E-02

== TH FLOW =====================================================================
 Step    535 Time=  2.61500E+01 Dt=  5.00000E-02 [y] snes_conv_reason:    3
  newton =   1 [     542] linear =   130 [     71800] cuts =  0 [   0]
  --> max chng: dpmx=   1.8525E+00 dtmpmx=   3.1809E-02

== TH FLOW =====================================================================
 Step    536 Time=  2.62000E+01 Dt=  5.00000E-02 [y] snes_conv_reason:    3
  newton =   1 [     543] linear =   130 [     71930] cuts =  0 [   0]
  --> max chng: dpmx=   1.8560E+00 dtmpmx=   3.1745E-02

== TH FLOW =====================================================================
 Step    537 Time=  2.62500E+01 Dt=  5.00000E-02 [y] snes_conv_reason:    3
  newton =   1 [     544] linear =   130 [     72060] cuts =  0 [   0]
  --> max chng: dpmx=   1.8596E+00 dtmpmx=   3.1713E-02

== TH FLOW =====================================================================
 Step    538 Time=  2.63000E+01 Dt=  5.00000E-02 [y] snes_conv_reason:    3
  newton =   1 [     545] linear =   126 [     72186] cuts =  0 [   0]
  --> max chng: dpmx=   1.8633E+00 dtmpmx=   3.1668E-02

== TH FLOW =====================================================================
 Step    539 Time=  2.63500E+01 Dt=  5.00000E-02 [y] snes_conv_reason:    3
  newton =   1 [     546] linear =   125 [     72311] cuts =  0 [   0]
  --> max chng: dpmx=   1.8667E+00 dtmpmx=   3.1605E-02

== TH FLOW =====================================================================
 Step    540 Time=  2.64000E+01 Dt=  5.00000E-02 [y] snes_conv_reason:    3
  newton =   1 [     547] linear =   125 [     72436] cuts =  0 [   0]
  --> max chng: dpmx=   1.8703E+00 dtmpmx=   3.1573E-02

== TH FLOW =====================================================================
 Step    541 Time=  2.64500E+01 Dt=  5.00000E-02 [y] snes_conv_reason:    3
  newton =   1 [     548] linear =   125 [     72561] cuts =  0 [   0]
  --> max chng: dpmx=   1.8744E+00 dtmpmx=   3.1529E-02

== TH FLOW =====================================================================
 Step    542 Time=  2.65000E+01 Dt=  5.00000E-02 [y] snes_conv_reason:    3
  newton =   1 [     549] linear =   128 [     72689] cuts =  0 [   0]
  --> max chng: dpmx=   1.8774E+00 dtmpmx=   3.1466E-02

== TH FLOW =====================================================================
 Step    543 Time=  2.65500E+01 Dt=  5.00000E-02 [y] snes_conv_reason:    3
  newton =   1 [     550] linear =   126 [     72815] cuts =  0 [   0]
  --> max chng: dpmx=   1.8813E+00 dtmpmx=   3.1435E-02

== TH FLOW =====================================================================
 Step    544 Time=  2.66000E+01 Dt=  5.00000E-02 [y] snes_conv_reason:    3
  newton =   1 [     551] linear =   126 [     72941] cuts =  0 [   0]
  --> max chng: dpmx=   1.8850E+00 dtmpmx=   3.1391E-02

== TH FLOW =====================================================================
 Step    545 Time=  2.66500E+01 Dt=  5.00000E-02 [y] snes_conv_reason:    3
  newton =   1 [     552] linear =   129 [     73070] cuts =  0 [   0]
  --> max chng: dpmx=   1.8886E+00 dtmpmx=   3.1328E-02

== TH FLOW =====================================================================
 Step    546 Time=  2.67000E+01 Dt=  5.00000E-02 [y] snes_conv_reason:    3
  newton =   1 [     553] linear =   128 [     73198] cuts =  0 [   0]
  --> max chng: dpmx=   1.8924E+00 dtmpmx=   3.1298E-02

== TH FLOW =====================================================================
 Step    547 Time=  2.67500E+01 Dt=  5.00000E-02 [y] snes_conv_reason:    3
  newton =   1 [     554] linear =   124 [     73322] cuts =  0 [   0]
  --> max chng: dpmx=   1.8954E+00 dtmpmx=   3.1254E-02

== TH FLOW =====================================================================
 Step    548 Time=  2.68000E+01 Dt=  5.00000E-02 [y] snes_conv_reason:    3
  newton =   1 [     555] linear =   123 [     73445] cuts =  0 [   0]
  --> max chng: dpmx=   1.8997E+00 dtmpmx=   3.1192E-02

== TH FLOW =====================================================================
 Step    549 Time=  2.68500E+01 Dt=  5.00000E-02 [y] snes_conv_reason:    3
  newton =   1 [     556] linear =   132 [     73577] cuts =  0 [   0]
  --> max chng: dpmx=   1.9032E+00 dtmpmx=   3.1162E-02

== TH FLOW =====================================================================
 Step    550 Time=  2.69000E+01 Dt=  5.00000E-02 [y] snes_conv_reason:    3
  newton =   1 [     557] linear =   132 [     73709] cuts =  0 [   0]
  --> max chng: dpmx=   1.9066E+00 dtmpmx=   3.1119E-02

== TH FLOW =====================================================================
 Step    551 Time=  2.69500E+01 Dt=  5.00000E-02 [y] snes_conv_reason:    3
  newton =   1 [     558] linear =   132 [     73841] cuts =  0 [   0]
  --> max chng: dpmx=   1.9103E+00 dtmpmx=   3.1057E-02

== TH FLOW =====================================================================
 Step    552 Time=  2.70000E+01 Dt=  5.00000E-02 [y] snes_conv_reason:    3
  newton =   1 [     559] linear =   128 [     73969] cuts =  0 [   0]
  --> max chng: dpmx=   1.9140E+00 dtmpmx=   3.1027E-02

== TH FLOW =====================================================================
 Step    553 Time=  2.70500E+01 Dt=  5.00000E-02 [y] snes_conv_reason:    3
  newton =   1 [     560] linear =   123 [     74092] cuts =  0 [   0]
  --> max chng: dpmx=   1.9173E+00 dtmpmx=   3.0984E-02

== TH FLOW =====================================================================
 Step    554 Time=  2.71000E+01 Dt=  5.00000E-02 [y] snes_conv_reason:    3
  newton =   1 [     561] linear =   125 [     74217] cuts =  0 [   0]
  --> max chng: dpmx=   1.9215E+00 dtmpmx=   3.0923E-02

== TH FLOW =====================================================================
 Step    555 Time=  2.71500E+01 Dt=  5.00000E-02 [y] snes_conv_reason:    3
  newton =   1 [     562] linear =   125 [     74342] cuts =  0 [   0]
  --> max chng: dpmx=   1.9247E+00 dtmpmx=   3.0894E-02

== TH FLOW =====================================================================
 Step    556 Time=  2.72000E+01 Dt=  5.00000E-02 [y] snes_conv_reason:    3
  newton =   1 [     563] linear =   125 [     74467] cuts =  0 [   0]
  --> max chng: dpmx=   1.9282E+00 dtmpmx=   3.0851E-02

== TH FLOW =====================================================================
 Step    557 Time=  2.72500E+01 Dt=  5.00000E-02 [y] snes_conv_reason:    3
  newton =   1 [     564] linear =   131 [     74598] cuts =  0 [   0]
  --> max chng: dpmx=   1.9321E+00 dtmpmx=   3.0790E-02

== TH FLOW =====================================================================
 Step    558 Time=  2.73000E+01 Dt=  5.00000E-02 [y] snes_conv_reason:    3
  newton =   1 [     565] linear =   128 [     74726] cuts =  0 [   0]
  --> max chng: dpmx=   1.9355E+00 dtmpmx=   3.0762E-02

== TH FLOW =====================================================================
 Step    559 Time=  2.73500E+01 Dt=  5.00000E-02 [y] snes_conv_reason:    3
  newton =   1 [     566] linear =   128 [     74854] cuts =  0 [   0]
  --> max chng: dpmx=   1.9393E+00 dtmpmx=   3.0719E-02

== TH FLOW =====================================================================
 Step    560 Time=  2.74000E+01 Dt=  5.00000E-02 [y] snes_conv_reason:    3
  newton =   1 [     567] linear =   134 [     74988] cuts =  0 [   0]
  --> max chng: dpmx=   1.9426E+00 dtmpmx=   3.0658E-02

== TH FLOW =====================================================================
 Step    561 Time=  2.74500E+01 Dt=  5.00000E-02 [y] snes_conv_reason:    3
  newton =   1 [     568] linear =   133 [     75121] cuts =  0 [   0]
  --> max chng: dpmx=   1.9463E+00 dtmpmx=   3.0631E-02

== TH FLOW =====================================================================
 Step    562 Time=  2.75000E+01 Dt=  5.00000E-02 [y] snes_conv_reason:    3
  newton =   1 [     569] linear =   134 [     75255] cuts =  0 [   0]
  --> max chng: dpmx=   1.9500E+00 dtmpmx=   3.0588E-02

 Wall Clock Time:  7.5033E+01 [sec]   1.2506E+00 [min]   2.0843E-02 [hr]
