
===================
  PFLOTRAN v3.0.1
===================

 Extent of Gridded Domain
  X: 2.5000000000000000 - 97.500000000000000
  Y: 2.5000000000000000 - 1277.5000000000000
  Z: 2.5000000000000000 - 2.5000000000000000


=+=+=+=+=+=+=+=+=+=+=+=+=+=+=+=+=+=+=+=+=+=+=+=+=+=+=+=+=+=+=+=+=+=+=+=+=+=+=+=+

  Initial Condition

--------------------------------------------------------------------------------
          Flow Condition:   initial
                  Region:   all
--------------------------------------------------------------------------------

  Flow Condition: initial
    Synchronize time with update: no
    Time units: yr
    Length units: m
      Datum:
        Dataset: Unnamed Ascii Dataset
          Type: dataset_ascii_type
          Transient: no
          Array Rank:  3

    Sub Condition: pressure
      Type: hydrostatic
      Gradient:
        Dataset: Unnamed Ascii Dataset
          Type: dataset_ascii_type
          Transient: no
          Array Rank:  3
      Data:
        Dataset: Unnamed Ascii Dataset
          Type: dataset_ascii_type
          Transient: no
          Array Rank:  1

    Sub Condition: temperature
      Type: dirichlet
      Gradient:
      Data:
        Dataset: Unnamed Ascii Dataset
          Type: dataset_ascii_type
          Transient: no
          Array Rank:  1

--------------------------------------------------------------------------------

=+=+=+=+=+=+=+=+=+=+=+=+=+=+=+=+=+=+=+=+=+=+=+=+=+=+=+=+=+=+=+=+=+=+=+=+=+=+=+=+

  Boundary Condition

--------------------------------------------------------------------------------
          Flow Condition:   initial
                  Region:   north
--------------------------------------------------------------------------------

  Flow Condition: initial
    Synchronize time with update: no
    Time units: yr
    Length units: m
      Datum:
        Dataset: Unnamed Ascii Dataset
          Type: dataset_ascii_type
          Transient: no
          Array Rank:  3

    Sub Condition: pressure
      Type: hydrostatic
      Gradient:
        Dataset: Unnamed Ascii Dataset
          Type: dataset_ascii_type
          Transient: no
          Array Rank:  3
      Data:
        Dataset: Unnamed Ascii Dataset
          Type: dataset_ascii_type
          Transient: no
          Array Rank:  1

    Sub Condition: temperature
      Type: dirichlet
      Gradient:
      Data:
        Dataset: Unnamed Ascii Dataset
          Type: dataset_ascii_type
          Transient: no
          Array Rank:  1

--------------------------------------------------------------------------------

=+=+=+=+=+=+=+=+=+=+=+=+=+=+=+=+=+=+=+=+=+=+=+=+=+=+=+=+=+=+=+=+=+=+=+=+=+=+=+=+

  Boundary Condition

--------------------------------------------------------------------------------
          Flow Condition:   initial
                  Region:   south
--------------------------------------------------------------------------------

  Flow Condition: initial
    Synchronize time with update: no
    Time units: yr
    Length units: m
      Datum:
        Dataset: Unnamed Ascii Dataset
          Type: dataset_ascii_type
          Transient: no
          Array Rank:  3

    Sub Condition: pressure
      Type: hydrostatic
      Gradient:
        Dataset: Unnamed Ascii Dataset
          Type: dataset_ascii_type
          Transient: no
          Array Rank:  3
      Data:
        Dataset: Unnamed Ascii Dataset
          Type: dataset_ascii_type
          Transient: no
          Array Rank:  1

    Sub Condition: temperature
      Type: dirichlet
      Gradient:
      Data:
        Dataset: Unnamed Ascii Dataset
          Type: dataset_ascii_type
          Transient: no
          Array Rank:  1

--------------------------------------------------------------------------------

=+=+=+=+=+=+=+=+=+=+=+=+=+=+=+=+=+=+=+=+=+=+=+=+=+=+=+=+=+=+=+=+=+=+=+=+=+=+=+=+

  Source Sink

--------------------------------------------------------------------------------
          Flow Condition:   injection
                  Region:   heatpump_inject0
--------------------------------------------------------------------------------

  Flow Condition: injection
    Synchronize time with update: no
    Time units: yr
    Length units: m
      Datum:

    Sub Condition: rate
      Type: scaled volumetric rate
      Gradient:
      Data:
        Dataset: Unnamed Ascii Dataset
          Type: dataset_ascii_type
          Is transient?: yes
          Number of times:      3
          Is cyclic?: no
          Buffer:
            Rank:  2
            Dims:    1   3
            Buffer Slice Size:   0
          Array Rank:  1

    Sub Condition: temperature
      Type: dirichlet
      Gradient:
      Data:
        Dataset: Unnamed Ascii Dataset
          Type: dataset_ascii_type
          Transient: no
          Array Rank:  1

--------------------------------------------------------------------------------

 Requested processors =    32

FLOW Time Stepper
                 acceleration: on
       acceleration threshold: 5
       number of ramp entries: 5
                ramp entry #1: 2.0000
                ramp entry #2: 2.0000
                ramp entry #3: 2.0000
                ramp entry #4: 2.0000
                ramp entry #5: 2.0000
                ramp entry #6: 1.8000
                ramp entry #7: 1.6000
                ramp entry #8: 1.4000
                ramp entry #9: 1.2000
               ramp entry #10: 1.0000
               ramp entry #11: 1.0000
               ramp entry #12: 1.0000
               ramp entry #13: 1.0000
      maximum number of steps: 999999
constant time steps threshold: 5
       maximum number of cuts: 16
             reduction factor: 5.000000E-01
        maximum growth factor: 2.000000E+00

FLOW Newton Solver
                         atol: 1.000000E-50
                         rtol: 1.000000E-03
                         stol: 1.000000E-08
                         dtol: 1.000000E+04
                      maxnorm: 1.000000E+20
                    inftolres: -9.990000E+02
                    inftolupd: 1.000000E+00
                 inftolrelupd: -9.990000E+02
                 inftolsclres: -9.990000E+02
                     max iter: 50
                     min iter: 1
                         maxf: 10000
                  matrix type: baij
         precond. matrix type: baij
               inexact newton: off
            print convergence: on
   print detailed convergence: off
          check infinity norm: on

FLOW Linear Solver
                       solver: bcgs
               preconditioner: bjacobi
                         atol: 1.000000E-50
                         rtol: 1.000000E-05
                         dtol: 1.000000E+04
            maximum iteration: 10000

== TH FLOW =====================================================================
 Step      1 Time=  1.00000E-05 Dt=  1.00000E-05 [y] snes_conv_reason:   11
  newton =   1 [       1] linear =    83 [        83] cuts =  0 [   0]
  --> max chng: dpmx=   2.8888E-02 dtmpmx=   1.0254E-09

== TH FLOW =====================================================================
 Step      2 Time=  3.00000E-05 Dt=  2.00000E-05 [y] snes_conv_reason:   11
  newton =   1 [       2] linear =   104 [       187] cuts =  0 [   0]
  --> max chng: dpmx=   4.1766E-02 dtmpmx=   2.0307E-09

== TH FLOW =====================================================================
 Step      3 Time=  7.00000E-05 Dt=  4.00000E-05 [y] snes_conv_reason:   11
  newton =   1 [       3] linear =   117 [       304] cuts =  0 [   0]
  --> max chng: dpmx=   4.3138E-02 dtmpmx=   4.0108E-09

== TH FLOW =====================================================================
 Step      4 Time=  1.50000E-04 Dt=  8.00000E-05 [y] snes_conv_reason:   11
  newton =   1 [       4] linear =   117 [       421] cuts =  0 [   0]
  --> max chng: dpmx=   2.9177E-02 dtmpmx=   7.9501E-09

== TH FLOW =====================================================================
 Step      5 Time=  3.10000E-04 Dt=  1.60000E-04 [y] snes_conv_reason:   11
  newton =   1 [       5] linear =   120 [       541] cuts =  0 [   0]
  --> max chng: dpmx=   1.1804E-02 dtmpmx=   1.5842E-08

== TH FLOW =====================================================================
 Step      6 Time=  6.30000E-04 Dt=  3.20000E-04 [y] snes_conv_reason:   11
  newton =   1 [       6] linear =   120 [       661] cuts =  0 [   0]
  --> max chng: dpmx=   2.6541E-03 dtmpmx=   3.1658E-08

== TH FLOW =====================================================================
 Step      7 Time=  1.27000E-03 Dt=  6.40000E-04 [y] snes_conv_reason:   11
  newton =   1 [       7] linear =   106 [       767] cuts =  0 [   0]
  --> max chng: dpmx=   3.1598E-04 dtmpmx=   6.3311E-08

== TH FLOW =====================================================================
 Step      8 Time=  2.55000E-03 Dt=  1.28000E-03 [y] snes_conv_reason:   11
  newton =   1 [       8] linear =   122 [       889] cuts =  0 [   0]
  --> max chng: dpmx=   1.9111E-05 dtmpmx=   1.2662E-07

== TH FLOW =====================================================================
 Step      9 Time=  5.11000E-03 Dt=  2.56000E-03 [y] snes_conv_reason:   11
  newton =   1 [       9] linear =   134 [      1023] cuts =  0 [   0]
  --> max chng: dpmx=   1.1484E-06 dtmpmx=   2.5325E-07

== TH FLOW =====================================================================
 Step     10 Time=  1.02300E-02 Dt=  5.12000E-03 [y] snes_conv_reason:   11
  newton =   1 [      10] linear =   131 [      1154] cuts =  0 [   0]
  --> max chng: dpmx=   2.3588E-06 dtmpmx=   5.0649E-07

== TH FLOW =====================================================================
 Step     11 Time=  2.04700E-02 Dt=  1.02400E-02 [y] snes_conv_reason:   11
  newton =   1 [      11] linear =   129 [      1283] cuts =  0 [   0]
  --> max chng: dpmx=   4.8443E-06 dtmpmx=   1.0130E-06

== TH FLOW =====================================================================
 Step     12 Time=  4.09500E-02 Dt=  2.04800E-02 [y] snes_conv_reason:   11
  newton =   1 [      12] linear =   124 [      1407] cuts =  0 [   0]
  --> max chng: dpmx=   1.0182E-05 dtmpmx=   2.0260E-06

== TH FLOW =====================================================================
 Step     13 Time=  8.19100E-02 Dt=  4.09600E-02 [y] snes_conv_reason:   11
  newton =   1 [      13] linear =   127 [      1534] cuts =  0 [   0]
  --> max chng: dpmx=   2.2378E-05 dtmpmx=   4.0519E-06

== TH FLOW =====================================================================
 Step     14 Time=  1.00000E-01 Dt=  1.80900E-02 [y] snes_conv_reason:   11
  newton =   1 [      14] linear =   125 [      1659] cuts =  0 [   0]
  --> max chng: dpmx=   1.0273E-05 dtmpmx=   1.7895E-06

== TH FLOW =====================================================================
 Step     15 Time=  1.50000E-01 Dt=  5.00000E-02 [y] snes_conv_reason:   11
  newton =   1 [      15] linear =   112 [      1771] cuts =  0 [   0]
  --> max chng: dpmx=   3.1347E-05 dtmpmx=   4.9462E-06

== TH FLOW =====================================================================
 Step     16 Time=  2.00000E-01 Dt=  5.00000E-02 [y] snes_conv_reason:   11
  newton =   1 [      16] linear =   123 [      1894] cuts =  0 [   0]
  --> max chng: dpmx=   3.4285E-05 dtmpmx=   4.9462E-06

== TH FLOW =====================================================================
 Step     17 Time=  2.50000E-01 Dt=  5.00000E-02 [y] snes_conv_reason:    3
  newton =   3 [      19] linear =   396 [      2290] cuts =  0 [   0]
  --> max chng: dpmx=   4.6426E+03 dtmpmx=   3.5161E+00

== TH FLOW =====================================================================
 Step     18 Time=  3.00000E-01 Dt=  5.00000E-02 [y] snes_conv_reason:   11
  newton =   2 [      21] linear =   260 [      2550] cuts =  0 [   0]
  --> max chng: dpmx=   2.8601E+01 dtmpmx=   1.2503E+00

== TH FLOW =====================================================================
 Step     19 Time=  3.50000E-01 Dt=  5.00000E-02 [y] snes_conv_reason:   11
  newton =   2 [      23] linear =   247 [      2797] cuts =  0 [   0]
  --> max chng: dpmx=   1.4608E+01 dtmpmx=   8.5821E-01

== TH FLOW =====================================================================
 Step     20 Time=  4.00000E-01 Dt=  5.00000E-02 [y] snes_conv_reason:   11
  newton =   2 [      25] linear =   256 [      3053] cuts =  0 [   0]
  --> max chng: dpmx=   8.9055E+00 dtmpmx=   6.5358E-01

== TH FLOW =====================================================================
 Step     21 Time=  4.50000E-01 Dt=  5.00000E-02 [y] snes_conv_reason:   11
  newton =   2 [      27] linear =   266 [      3319] cuts =  0 [   0]
  --> max chng: dpmx=   6.3522E+00 dtmpmx=   5.6097E-01

== TH FLOW =====================================================================
 Step     22 Time=  5.00000E-01 Dt=  5.00000E-02 [y] snes_conv_reason:    3
  newton =   1 [      28] linear =   136 [      3455] cuts =  0 [   0]
  --> max chng: dpmx=   4.9885E+00 dtmpmx=   4.5899E-01

== TH FLOW =====================================================================
 Step     23 Time=  5.50000E-01 Dt=  5.00000E-02 [y] snes_conv_reason:    3
  newton =   1 [      29] linear =   131 [      3586] cuts =  0 [   0]
  --> max chng: dpmx=   4.0548E+00 dtmpmx=   4.2416E-01

== TH FLOW =====================================================================
 Step     24 Time=  6.00000E-01 Dt=  5.00000E-02 [y] snes_conv_reason:    3
  newton =   1 [      30] linear =   128 [      3714] cuts =  0 [   0]
  --> max chng: dpmx=   3.4278E+00 dtmpmx=   3.8830E-01

== TH FLOW =====================================================================
 Step     25 Time=  6.50000E-01 Dt=  5.00000E-02 [y] snes_conv_reason:    3
  newton =   1 [      31] linear =   137 [      3851] cuts =  0 [   0]
  --> max chng: dpmx=   2.9522E+00 dtmpmx=   3.4590E-01

== TH FLOW =====================================================================
 Step     26 Time=  7.00000E-01 Dt=  5.00000E-02 [y] snes_conv_reason:    3
  newton =   1 [      32] linear =   138 [      3989] cuts =  0 [   0]
  --> max chng: dpmx=   2.6533E+00 dtmpmx=   3.1537E-01

== TH FLOW =====================================================================
 Step     27 Time=  7.50000E-01 Dt=  5.00000E-02 [y] snes_conv_reason:    3
  newton =   1 [      33] linear =   131 [      4120] cuts =  0 [   0]
  --> max chng: dpmx=   2.6288E+00 dtmpmx=   3.0276E-01

== TH FLOW =====================================================================
 Step     28 Time=  8.00000E-01 Dt=  5.00000E-02 [y] snes_conv_reason:    3
  newton =   1 [      34] linear =   131 [      4251] cuts =  0 [   0]
  --> max chng: dpmx=   2.5961E+00 dtmpmx=   2.8507E-01

== TH FLOW =====================================================================
 Step     29 Time=  8.50000E-01 Dt=  5.00000E-02 [y] snes_conv_reason:    3
  newton =   1 [      35] linear =   134 [      4385] cuts =  0 [   0]
  --> max chng: dpmx=   2.5527E+00 dtmpmx=   2.6420E-01

== TH FLOW =====================================================================
 Step     30 Time=  9.00000E-01 Dt=  5.00000E-02 [y] snes_conv_reason:    3
  newton =   1 [      36] linear =   137 [      4522] cuts =  0 [   0]
  --> max chng: dpmx=   2.5232E+00 dtmpmx=   2.4703E-01

== TH FLOW =====================================================================
 Step     31 Time=  9.50000E-01 Dt=  5.00000E-02 [y] snes_conv_reason:    3
  newton =   1 [      37] linear =   137 [      4659] cuts =  0 [   0]
  --> max chng: dpmx=   2.5073E+00 dtmpmx=   2.3996E-01

== TH FLOW =====================================================================
 Step     32 Time=  1.00000E+00 Dt=  5.00000E-02 [y] snes_conv_reason:    3
  newton =   1 [      38] linear =   139 [      4798] cuts =  0 [   0]
  --> max chng: dpmx=   2.4829E+00 dtmpmx=   2.3037E-01

== TH FLOW =====================================================================
 Step     33 Time=  1.05000E+00 Dt=  5.00000E-02 [y] snes_conv_reason:    3
  newton =   1 [      39] linear =   140 [      4938] cuts =  0 [   0]
  --> max chng: dpmx=   2.4519E+00 dtmpmx=   2.1986E-01

== TH FLOW =====================================================================
 Step     34 Time=  1.10000E+00 Dt=  5.00000E-02 [y] snes_conv_reason:    3
  newton =   1 [      40] linear =   139 [      5077] cuts =  0 [   0]
  --> max chng: dpmx=   2.4391E+00 dtmpmx=   2.0780E-01

== TH FLOW =====================================================================
 Step     35 Time=  1.15000E+00 Dt=  5.00000E-02 [y] snes_conv_reason:    3
  newton =   1 [      41] linear =   137 [      5214] cuts =  0 [   0]
  --> max chng: dpmx=   2.4277E+00 dtmpmx=   2.0187E-01

== TH FLOW =====================================================================
 Step     36 Time=  1.20000E+00 Dt=  5.00000E-02 [y] snes_conv_reason:    3
  newton =   1 [      42] linear =   141 [      5355] cuts =  0 [   0]
  --> max chng: dpmx=   2.4114E+00 dtmpmx=   1.9677E-01

== TH FLOW =====================================================================
 Step     37 Time=  1.25000E+00 Dt=  5.00000E-02 [y] snes_conv_reason:    3
  newton =   1 [      43] linear =   139 [      5494] cuts =  0 [   0]
  --> max chng: dpmx=   2.3902E+00 dtmpmx=   1.9013E-01

== TH FLOW =====================================================================
 Step     38 Time=  1.30000E+00 Dt=  5.00000E-02 [y] snes_conv_reason:    3
  newton =   1 [      44] linear =   132 [      5626] cuts =  0 [   0]
  --> max chng: dpmx=   2.3796E+00 dtmpmx=   1.8310E-01

== TH FLOW =====================================================================
 Step     39 Time=  1.35000E+00 Dt=  5.00000E-02 [y] snes_conv_reason:    3
  newton =   1 [      45] linear =   134 [      5760] cuts =  0 [   0]
  --> max chng: dpmx=   2.3735E+00 dtmpmx=   1.7588E-01

== TH FLOW =====================================================================
 Step     40 Time=  1.40000E+00 Dt=  5.00000E-02 [y] snes_conv_reason:    3
  newton =   1 [      46] linear =   136 [      5896] cuts =  0 [   0]
  --> max chng: dpmx=   2.3631E+00 dtmpmx=   1.7153E-01

== TH FLOW =====================================================================
 Step     41 Time=  1.45000E+00 Dt=  5.00000E-02 [y] snes_conv_reason:    3
  newton =   1 [      47] linear =   138 [      6034] cuts =  0 [   0]
  --> max chng: dpmx=   2.3471E+00 dtmpmx=   1.6831E-01

== TH FLOW =====================================================================
 Step     42 Time=  1.50000E+00 Dt=  5.00000E-02 [y] snes_conv_reason:    3
  newton =   1 [      48] linear =   137 [      6171] cuts =  0 [   0]
  --> max chng: dpmx=   2.3374E+00 dtmpmx=   1.6407E-01

== TH FLOW =====================================================================
 Step     43 Time=  1.55000E+00 Dt=  5.00000E-02 [y] snes_conv_reason:    3
  newton =   1 [      49] linear =   138 [      6309] cuts =  0 [   0]
  --> max chng: dpmx=   2.3332E+00 dtmpmx=   1.5897E-01

== TH FLOW =====================================================================
 Step     44 Time=  1.60000E+00 Dt=  5.00000E-02 [y] snes_conv_reason:    3
  newton =   1 [      50] linear =   139 [      6448] cuts =  0 [   0]
  --> max chng: dpmx=   2.3251E+00 dtmpmx=   1.5459E-01

== TH FLOW =====================================================================
 Step     45 Time=  1.65000E+00 Dt=  5.00000E-02 [y] snes_conv_reason:    3
  newton =   1 [      51] linear =   139 [      6587] cuts =  0 [   0]
  --> max chng: dpmx=   2.3164E+00 dtmpmx=   1.4979E-01

== TH FLOW =====================================================================
 Step     46 Time=  1.70000E+00 Dt=  5.00000E-02 [y] snes_conv_reason:    3
  newton =   1 [      52] linear =   138 [      6725] cuts =  0 [   0]
  --> max chng: dpmx=   2.3042E+00 dtmpmx=   1.4796E-01

== TH FLOW =====================================================================
 Step     47 Time=  1.75000E+00 Dt=  5.00000E-02 [y] snes_conv_reason:    3
  newton =   1 [      53] linear =   137 [      6862] cuts =  0 [   0]
  --> max chng: dpmx=   2.3014E+00 dtmpmx=   1.4538E-01

== TH FLOW =====================================================================
 Step     48 Time=  1.80000E+00 Dt=  5.00000E-02 [y] snes_conv_reason:    3
  newton =   1 [      54] linear =   141 [      7003] cuts =  0 [   0]
  --> max chng: dpmx=   2.2977E+00 dtmpmx=   1.4215E-01

== TH FLOW =====================================================================
 Step     49 Time=  1.85000E+00 Dt=  5.00000E-02 [y] snes_conv_reason:    3
  newton =   1 [      55] linear =   134 [      7137] cuts =  0 [   0]
  --> max chng: dpmx=   2.2909E+00 dtmpmx=   1.3869E-01

== TH FLOW =====================================================================
 Step     50 Time=  1.90000E+00 Dt=  5.00000E-02 [y] snes_conv_reason:    3
  newton =   1 [      56] linear =   136 [      7273] cuts =  0 [   0]
  --> max chng: dpmx=   2.2827E+00 dtmpmx=   1.3564E-01

== TH FLOW =====================================================================
 Step     51 Time=  1.95000E+00 Dt=  5.00000E-02 [y] snes_conv_reason:    3
  newton =   1 [      57] linear =   135 [      7408] cuts =  0 [   0]
  --> max chng: dpmx=   2.2763E+00 dtmpmx=   1.3236E-01

== TH FLOW =====================================================================
 Step     52 Time=  2.00000E+00 Dt=  5.00000E-02 [y] snes_conv_reason:    3
  newton =   1 [      58] linear =   135 [      7543] cuts =  0 [   0]
  --> max chng: dpmx=   2.2747E+00 dtmpmx=   1.3094E-01

== TH FLOW =====================================================================
 Step     53 Time=  2.05000E+00 Dt=  5.00000E-02 [y] snes_conv_reason:    3
  newton =   1 [      59] linear =   138 [      7681] cuts =  0 [   0]
  --> max chng: dpmx=   2.2705E+00 dtmpmx=   1.2900E-01

== TH FLOW =====================================================================
 Step     54 Time=  2.10000E+00 Dt=  5.00000E-02 [y] snes_conv_reason:    3
  newton =   1 [      60] linear =   136 [      7817] cuts =  0 [   0]
  --> max chng: dpmx=   2.2651E+00 dtmpmx=   1.2660E-01

== TH FLOW =====================================================================
 Step     55 Time=  2.15000E+00 Dt=  5.00000E-02 [y] snes_conv_reason:    3
  newton =   1 [      61] linear =   134 [      7951] cuts =  0 [   0]
  --> max chng: dpmx=   2.2565E+00 dtmpmx=   1.2417E-01

== TH FLOW =====================================================================
 Step     56 Time=  2.20000E+00 Dt=  5.00000E-02 [y] snes_conv_reason:    3
  newton =   1 [      62] linear =   139 [      8090] cuts =  0 [   0]
  --> max chng: dpmx=   2.2554E+00 dtmpmx=   1.2202E-01

== TH FLOW =====================================================================
 Step     57 Time=  2.25000E+00 Dt=  5.00000E-02 [y] snes_conv_reason:    3
  newton =   1 [      63] linear =   138 [      8228] cuts =  0 [   0]
  --> max chng: dpmx=   2.2535E+00 dtmpmx=   1.1951E-01

== TH FLOW =====================================================================
 Step     58 Time=  2.30000E+00 Dt=  5.00000E-02 [y] snes_conv_reason:    3
  newton =   1 [      64] linear =   139 [      8367] cuts =  0 [   0]
  --> max chng: dpmx=   2.2496E+00 dtmpmx=   1.1815E-01

== TH FLOW =====================================================================
 Step     59 Time=  2.35000E+00 Dt=  5.00000E-02 [y] snes_conv_reason:    3
  newton =   1 [      65] linear =   127 [      8494] cuts =  0 [   0]
  --> max chng: dpmx=   2.2446E+00 dtmpmx=   1.1673E-01

== TH FLOW =====================================================================
 Step     60 Time=  2.40000E+00 Dt=  5.00000E-02 [y] snes_conv_reason:    3
  newton =   1 [      66] linear =   138 [      8632] cuts =  0 [   0]
  --> max chng: dpmx=   2.2386E+00 dtmpmx=   1.1496E-01

== TH FLOW =====================================================================
 Step     61 Time=  2.45000E+00 Dt=  5.00000E-02 [y] snes_conv_reason:    3
  newton =   1 [      67] linear =   136 [      8768] cuts =  0 [   0]
  --> max chng: dpmx=   2.2379E+00 dtmpmx=   1.1314E-01

== TH FLOW =====================================================================
 Step     62 Time=  2.50000E+00 Dt=  5.00000E-02 [y] snes_conv_reason:    3
  newton =   1 [      68] linear =   138 [      8906] cuts =  0 [   0]
  --> max chng: dpmx=   2.2363E+00 dtmpmx=   1.1163E-01

== TH FLOW =====================================================================
 Step     63 Time=  2.55000E+00 Dt=  5.00000E-02 [y] snes_conv_reason:    3
  newton =   1 [      69] linear =   129 [      9035] cuts =  0 [   0]
  --> max chng: dpmx=   2.2332E+00 dtmpmx=   1.0982E-01

== TH FLOW =====================================================================
 Step     64 Time=  2.60000E+00 Dt=  5.00000E-02 [y] snes_conv_reason:    3
  newton =   1 [      70] linear =   122 [      9157] cuts =  0 [   0]
  --> max chng: dpmx=   2.2282E+00 dtmpmx=   1.0815E-01

== TH FLOW =====================================================================
 Step     65 Time=  2.65000E+00 Dt=  5.00000E-02 [y] snes_conv_reason:    3
  newton =   1 [      71] linear =   138 [      9295] cuts =  0 [   0]
  --> max chng: dpmx=   2.2247E+00 dtmpmx=   1.0714E-01

== TH FLOW =====================================================================
 Step     66 Time=  2.70000E+00 Dt=  5.00000E-02 [y] snes_conv_reason:    3
  newton =   1 [      72] linear =   132 [      9427] cuts =  0 [   0]
  --> max chng: dpmx=   2.2239E+00 dtmpmx=   1.0584E-01

== TH FLOW =====================================================================
 Step     67 Time=  2.75000E+00 Dt=  5.00000E-02 [y] snes_conv_reason:    3
  newton =   1 [      73] linear =   142 [      9569] cuts =  0 [   0]
  --> max chng: dpmx=   2.2219E+00 dtmpmx=   1.0439E-01

== TH FLOW =====================================================================
 Step     68 Time=  2.80000E+00 Dt=  5.00000E-02 [y] snes_conv_reason:    3
  newton =   1 [      74] linear =   134 [      9703] cuts =  0 [   0]
  --> max chng: dpmx=   2.2199E+00 dtmpmx=   1.0334E-01

== TH FLOW =====================================================================
 Step     69 Time=  2.85000E+00 Dt=  5.00000E-02 [y] snes_conv_reason:    3
  newton =   1 [      75] linear =   134 [      9837] cuts =  0 [   0]
  --> max chng: dpmx=   2.2160E+00 dtmpmx=   1.0204E-01

== TH FLOW =====================================================================
 Step     70 Time=  2.90000E+00 Dt=  5.00000E-02 [y] snes_conv_reason:    3
  newton =   1 [      76] linear =   137 [      9974] cuts =  0 [   0]
  --> max chng: dpmx=   2.2122E+00 dtmpmx=   1.0051E-01

== TH FLOW =====================================================================
 Step     71 Time=  2.95000E+00 Dt=  5.00000E-02 [y] snes_conv_reason:    3
  newton =   1 [      77] linear =   138 [     10112] cuts =  0 [   0]
  --> max chng: dpmx=   2.2122E+00 dtmpmx=   9.9369E-02

== TH FLOW =====================================================================
 Step     72 Time=  3.00000E+00 Dt=  5.00000E-02 [y] snes_conv_reason:    3
  newton =   1 [      78] linear =   137 [     10249] cuts =  0 [   0]
  --> max chng: dpmx=   2.2106E+00 dtmpmx=   9.8437E-02

== TH FLOW =====================================================================
 Step     73 Time=  3.05000E+00 Dt=  5.00000E-02 [y] snes_conv_reason:    3
  newton =   1 [      79] linear =   137 [     10386] cuts =  0 [   0]
  --> max chng: dpmx=   2.2087E+00 dtmpmx=   9.7286E-02

== TH FLOW =====================================================================
 Step     74 Time=  3.10000E+00 Dt=  5.00000E-02 [y] snes_conv_reason:    3
  newton =   1 [      80] linear =   139 [     10525] cuts =  0 [   0]
  --> max chng: dpmx=   2.2051E+00 dtmpmx=   9.6491E-02

== TH FLOW =====================================================================
 Step     75 Time=  3.15000E+00 Dt=  5.00000E-02 [y] snes_conv_reason:    3
  newton =   1 [      81] linear =   139 [     10664] cuts =  0 [   0]
  --> max chng: dpmx=   2.2023E+00 dtmpmx=   9.5575E-02

== TH FLOW =====================================================================
 Step     76 Time=  3.20000E+00 Dt=  5.00000E-02 [y] snes_conv_reason:    3
  newton =   1 [      82] linear =   140 [     10804] cuts =  0 [   0]
  --> max chng: dpmx=   2.2021E+00 dtmpmx=   9.4462E-02

== TH FLOW =====================================================================
 Step     77 Time=  3.25000E+00 Dt=  5.00000E-02 [y] snes_conv_reason:    3
  newton =   1 [      83] linear =   139 [     10943] cuts =  0 [   0]
  --> max chng: dpmx=   2.2008E+00 dtmpmx=   9.3167E-02

== TH FLOW =====================================================================
 Step     78 Time=  3.30000E+00 Dt=  5.00000E-02 [y] snes_conv_reason:    3
  newton =   1 [      84] linear =   141 [     11084] cuts =  0 [   0]
  --> max chng: dpmx=   2.1987E+00 dtmpmx=   9.2254E-02

== TH FLOW =====================================================================
 Step     79 Time=  3.35000E+00 Dt=  5.00000E-02 [y] snes_conv_reason:    3
  newton =   1 [      85] linear =   139 [     11223] cuts =  0 [   0]
  --> max chng: dpmx=   2.1962E+00 dtmpmx=   9.1415E-02

== TH FLOW =====================================================================
 Step     80 Time=  3.40000E+00 Dt=  5.00000E-02 [y] snes_conv_reason:    3
  newton =   1 [      86] linear =   139 [     11362] cuts =  0 [   0]
  --> max chng: dpmx=   2.1930E+00 dtmpmx=   9.0694E-02

== TH FLOW =====================================================================
 Step     81 Time=  3.45000E+00 Dt=  5.00000E-02 [y] snes_conv_reason:    3
  newton =   1 [      87] linear =   139 [     11501] cuts =  0 [   0]
  --> max chng: dpmx=   2.1940E+00 dtmpmx=   9.0069E-02

== TH FLOW =====================================================================
 Step     82 Time=  3.50000E+00 Dt=  5.00000E-02 [y] snes_conv_reason:    3
  newton =   1 [      88] linear =   136 [     11637] cuts =  0 [   0]
  --> max chng: dpmx=   2.1924E+00 dtmpmx=   8.9272E-02

== TH FLOW =====================================================================
 Step     83 Time=  3.55000E+00 Dt=  5.00000E-02 [y] snes_conv_reason:    3
  newton =   1 [      89] linear =   140 [     11777] cuts =  0 [   0]
  --> max chng: dpmx=   2.1904E+00 dtmpmx=   8.8313E-02

== TH FLOW =====================================================================
 Step     84 Time=  3.60000E+00 Dt=  5.00000E-02 [y] snes_conv_reason:    3
  newton =   1 [      90] linear =   140 [     11917] cuts =  0 [   0]
  --> max chng: dpmx=   2.1883E+00 dtmpmx=   8.7205E-02

== TH FLOW =====================================================================
 Step     85 Time=  3.65000E+00 Dt=  5.00000E-02 [y] snes_conv_reason:    3
  newton =   1 [      91] linear =   140 [     12057] cuts =  0 [   0]
  --> max chng: dpmx=   2.1854E+00 dtmpmx=   8.6378E-02

== TH FLOW =====================================================================
 Step     86 Time=  3.70000E+00 Dt=  5.00000E-02 [y] snes_conv_reason:    3
  newton =   1 [      92] linear =   140 [     12197] cuts =  0 [   0]
  --> max chng: dpmx=   2.1854E+00 dtmpmx=   8.5687E-02

== TH FLOW =====================================================================
 Step     87 Time=  3.75000E+00 Dt=  5.00000E-02 [y] snes_conv_reason:    3
  newton =   1 [      93] linear =   138 [     12335] cuts =  0 [   0]
  --> max chng: dpmx=   2.1847E+00 dtmpmx=   8.5287E-02

== TH FLOW =====================================================================
 Step     88 Time=  3.80000E+00 Dt=  5.00000E-02 [y] snes_conv_reason:    3
  newton =   1 [      94] linear =   140 [     12475] cuts =  0 [   0]
  --> max chng: dpmx=   2.1834E+00 dtmpmx=   8.4735E-02

== TH FLOW =====================================================================
 Step     89 Time=  3.85000E+00 Dt=  5.00000E-02 [y] snes_conv_reason:    3
  newton =   1 [      95] linear =   140 [     12615] cuts =  0 [   0]
  --> max chng: dpmx=   2.1811E+00 dtmpmx=   8.4040E-02

== TH FLOW =====================================================================
 Step     90 Time=  3.90000E+00 Dt=  5.00000E-02 [y] snes_conv_reason:    3
  newton =   1 [      96] linear =   132 [     12747] cuts =  0 [   0]
  --> max chng: dpmx=   2.1783E+00 dtmpmx=   8.3209E-02

== TH FLOW =====================================================================
 Step     91 Time=  3.95000E+00 Dt=  5.00000E-02 [y] snes_conv_reason:    3
  newton =   1 [      97] linear =   135 [     12882] cuts =  0 [   0]
  --> max chng: dpmx=   2.1777E+00 dtmpmx=   8.2251E-02

== TH FLOW =====================================================================
 Step     92 Time=  4.00000E+00 Dt=  5.00000E-02 [y] snes_conv_reason:    3
  newton =   1 [      98] linear =   136 [     13018] cuts =  0 [   0]
  --> max chng: dpmx=   2.1783E+00 dtmpmx=   8.1443E-02

== TH FLOW =====================================================================
 Step     93 Time=  4.05000E+00 Dt=  5.00000E-02 [y] snes_conv_reason:    3
  newton =   1 [      99] linear =   133 [     13151] cuts =  0 [   0]
  --> max chng: dpmx=   2.1762E+00 dtmpmx=   8.1071E-02

== TH FLOW =====================================================================
 Step     94 Time=  4.10000E+00 Dt=  5.00000E-02 [y] snes_conv_reason:    3
  newton =   1 [     100] linear =   142 [     13293] cuts =  0 [   0]
  --> max chng: dpmx=   2.1749E+00 dtmpmx=   8.0713E-02

== TH FLOW =====================================================================
 Step     95 Time=  4.15000E+00 Dt=  5.00000E-02 [y] snes_conv_reason:    3
  newton =   1 [     101] linear =   137 [     13430] cuts =  0 [   0]
  --> max chng: dpmx=   2.1721E+00 dtmpmx=   8.0226E-02

== TH FLOW =====================================================================
 Step     96 Time=  4.20000E+00 Dt=  5.00000E-02 [y] snes_conv_reason:    3
  newton =   1 [     102] linear =   139 [     13569] cuts =  0 [   0]
  --> max chng: dpmx=   2.1716E+00 dtmpmx=   7.9617E-02

== TH FLOW =====================================================================
 Step     97 Time=  4.25000E+00 Dt=  5.00000E-02 [y] snes_conv_reason:    3
  newton =   1 [     103] linear =   139 [     13708] cuts =  0 [   0]
  --> max chng: dpmx=   2.1714E+00 dtmpmx=   7.8891E-02

== TH FLOW =====================================================================
 Step     98 Time=  4.30000E+00 Dt=  5.00000E-02 [y] snes_conv_reason:    3
  newton =   1 [     104] linear =   139 [     13847] cuts =  0 [   0]
  --> max chng: dpmx=   2.1703E+00 dtmpmx=   7.8056E-02

== TH FLOW =====================================================================
 Step     99 Time=  4.35000E+00 Dt=  5.00000E-02 [y] snes_conv_reason:    3
  newton =   1 [     105] linear =   140 [     13987] cuts =  0 [   0]
  --> max chng: dpmx=   2.1686E+00 dtmpmx=   7.7442E-02

== TH FLOW =====================================================================
 Step    100 Time=  4.40000E+00 Dt=  5.00000E-02 [y] snes_conv_reason:    3
  newton =   1 [     106] linear =   138 [     14125] cuts =  0 [   0]
  --> max chng: dpmx=   2.1666E+00 dtmpmx=   7.7105E-02

== TH FLOW =====================================================================
 Step    101 Time=  4.45000E+00 Dt=  5.00000E-02 [y] snes_conv_reason:    3
  newton =   1 [     107] linear =   140 [     14265] cuts =  0 [   0]
  --> max chng: dpmx=   2.1653E+00 dtmpmx=   7.6786E-02

== TH FLOW =====================================================================
 Step    102 Time=  4.50000E+00 Dt=  5.00000E-02 [y] snes_conv_reason:    3
  newton =   1 [     108] linear =   139 [     14404] cuts =  0 [   0]
  --> max chng: dpmx=   2.1651E+00 dtmpmx=   7.6355E-02

== TH FLOW =====================================================================
 Step    103 Time=  4.55000E+00 Dt=  5.00000E-02 [y] snes_conv_reason:    3
  newton =   1 [     109] linear =   140 [     14544] cuts =  0 [   0]
  --> max chng: dpmx=   2.1641E+00 dtmpmx=   7.5818E-02

== TH FLOW =====================================================================
 Step    104 Time=  4.60000E+00 Dt=  5.00000E-02 [y] snes_conv_reason:    3
  newton =   1 [     110] linear =   140 [     14684] cuts =  0 [   0]
  --> max chng: dpmx=   2.1630E+00 dtmpmx=   7.5180E-02

== TH FLOW =====================================================================
 Step    105 Time=  4.65000E+00 Dt=  5.00000E-02 [y] snes_conv_reason:    3
  newton =   1 [     111] linear =   139 [     14823] cuts =  0 [   0]
  --> max chng: dpmx=   2.1610E+00 dtmpmx=   7.4446E-02

== TH FLOW =====================================================================
 Step    106 Time=  4.70000E+00 Dt=  5.00000E-02 [y] snes_conv_reason:    3
  newton =   1 [     112] linear =   137 [     14960] cuts =  0 [   0]
  --> max chng: dpmx=   2.1590E+00 dtmpmx=   7.4011E-02

== TH FLOW =====================================================================
 Step    107 Time=  4.75000E+00 Dt=  5.00000E-02 [y] snes_conv_reason:    3
  newton =   1 [     113] linear =   138 [     15098] cuts =  0 [   0]
  --> max chng: dpmx=   2.1593E+00 dtmpmx=   7.3694E-02

== TH FLOW =====================================================================
 Step    108 Time=  4.80000E+00 Dt=  5.00000E-02 [y] snes_conv_reason:    3
  newton =   1 [     114] linear =   136 [     15234] cuts =  0 [   0]
  --> max chng: dpmx=   2.1584E+00 dtmpmx=   7.3370E-02

== TH FLOW =====================================================================
 Step    109 Time=  4.85000E+00 Dt=  5.00000E-02 [y] snes_conv_reason:    3
  newton =   1 [     115] linear =   133 [     15367] cuts =  0 [   0]
  --> max chng: dpmx=   2.1573E+00 dtmpmx=   7.2988E-02

== TH FLOW =====================================================================
 Step    110 Time=  4.90000E+00 Dt=  5.00000E-02 [y] snes_conv_reason:    3
  newton =   1 [     116] linear =   133 [     15500] cuts =  0 [   0]
  --> max chng: dpmx=   2.1556E+00 dtmpmx=   7.2512E-02

== TH FLOW =====================================================================
 Step    111 Time=  4.95000E+00 Dt=  5.00000E-02 [y] snes_conv_reason:    3
  newton =   1 [     117] linear =   129 [     15629] cuts =  0 [   0]
  --> max chng: dpmx=   2.1534E+00 dtmpmx=   7.1947E-02

== TH FLOW =====================================================================
 Step    112 Time=  5.00000E+00 Dt=  5.00000E-02 [y] snes_conv_reason:    3
  newton =   1 [     118] linear =   141 [     15770] cuts =  0 [   0]
  --> max chng: dpmx=   2.1531E+00 dtmpmx=   7.1297E-02

== TH FLOW =====================================================================
 Step    113 Time=  5.05000E+00 Dt=  5.00000E-02 [y] snes_conv_reason:    3
  newton =   1 [     119] linear =   139 [     15909] cuts =  0 [   0]
  --> max chng: dpmx=   2.1528E+00 dtmpmx=   7.0990E-02

== TH FLOW =====================================================================
 Step    114 Time=  5.10000E+00 Dt=  5.00000E-02 [y] snes_conv_reason:    3
  newton =   1 [     120] linear =   139 [     16048] cuts =  0 [   0]
  --> max chng: dpmx=   2.1518E+00 dtmpmx=   7.0712E-02

== TH FLOW =====================================================================
 Step    115 Time=  5.15000E+00 Dt=  5.00000E-02 [y] snes_conv_reason:    3
  newton =   1 [     121] linear =   139 [     16187] cuts =  0 [   0]
  --> max chng: dpmx=   2.1500E+00 dtmpmx=   7.0367E-02

== TH FLOW =====================================================================
 Step    116 Time=  5.20000E+00 Dt=  5.00000E-02 [y] snes_conv_reason:    3
  newton =   1 [     122] linear =   128 [     16315] cuts =  0 [   0]
  --> max chng: dpmx=   2.1485E+00 dtmpmx=   7.0026E-02

== TH FLOW =====================================================================
 Step    117 Time=  5.25000E+00 Dt=  5.00000E-02 [y] snes_conv_reason:    3
  newton =   1 [     123] linear =   138 [     16453] cuts =  0 [   0]
  --> max chng: dpmx=   2.1477E+00 dtmpmx=   6.9602E-02

== TH FLOW =====================================================================
 Step    118 Time=  5.30000E+00 Dt=  5.00000E-02 [y] snes_conv_reason:    3
  newton =   1 [     124] linear =   128 [     16581] cuts =  0 [   0]
  --> max chng: dpmx=   2.1471E+00 dtmpmx=   6.9098E-02

== TH FLOW =====================================================================
 Step    119 Time=  5.35000E+00 Dt=  5.00000E-02 [y] snes_conv_reason:    3
  newton =   1 [     125] linear =   138 [     16719] cuts =  0 [   0]
  --> max chng: dpmx=   2.1461E+00 dtmpmx=   6.8519E-02

== TH FLOW =====================================================================
 Step    120 Time=  5.40000E+00 Dt=  5.00000E-02 [y] snes_conv_reason:    3
  newton =   1 [     126] linear =   129 [     16848] cuts =  0 [   0]
  --> max chng: dpmx=   2.1451E+00 dtmpmx=   6.8306E-02

== TH FLOW =====================================================================
 Step    121 Time=  5.45000E+00 Dt=  5.00000E-02 [y] snes_conv_reason:    3
  newton =   1 [     127] linear =   133 [     16981] cuts =  0 [   0]
  --> max chng: dpmx=   2.1436E+00 dtmpmx=   6.8060E-02

== TH FLOW =====================================================================
 Step    122 Time=  5.50000E+00 Dt=  5.00000E-02 [y] snes_conv_reason:    3
  newton =   1 [     128] linear =   136 [     17117] cuts =  0 [   0]
  --> max chng: dpmx=   2.1416E+00 dtmpmx=   6.7736E-02

== TH FLOW =====================================================================
 Step    123 Time=  5.55000E+00 Dt=  5.00000E-02 [y] snes_conv_reason:    3
  newton =   1 [     129] linear =   138 [     17255] cuts =  0 [   0]
  --> max chng: dpmx=   2.1413E+00 dtmpmx=   6.7395E-02

== TH FLOW =====================================================================
 Step    124 Time=  5.60000E+00 Dt=  5.00000E-02 [y] snes_conv_reason:    3
  newton =   1 [     130] linear =   136 [     17391] cuts =  0 [   0]
  --> max chng: dpmx=   2.1408E+00 dtmpmx=   6.7015E-02

== TH FLOW =====================================================================
 Step    125 Time=  5.65000E+00 Dt=  5.00000E-02 [y] snes_conv_reason:    3
  newton =   1 [     131] linear =   134 [     17525] cuts =  0 [   0]
  --> max chng: dpmx=   2.1395E+00 dtmpmx=   6.6563E-02

== TH FLOW =====================================================================
 Step    126 Time=  5.70000E+00 Dt=  5.00000E-02 [y] snes_conv_reason:    3
  newton =   1 [     132] linear =   137 [     17662] cuts =  0 [   0]
  --> max chng: dpmx=   2.1384E+00 dtmpmx=   6.6045E-02

== TH FLOW =====================================================================
 Step    127 Time=  5.75000E+00 Dt=  5.00000E-02 [y] snes_conv_reason:    3
  newton =   1 [     133] linear =   136 [     17798] cuts =  0 [   0]
  --> max chng: dpmx=   2.1364E+00 dtmpmx=   6.5900E-02

== TH FLOW =====================================================================
 Step    128 Time=  5.80000E+00 Dt=  5.00000E-02 [y] snes_conv_reason:    3
  newton =   1 [     134] linear =   136 [     17934] cuts =  0 [   0]
  --> max chng: dpmx=   2.1356E+00 dtmpmx=   6.5681E-02

== TH FLOW =====================================================================
 Step    129 Time=  5.85000E+00 Dt=  5.00000E-02 [y] snes_conv_reason:    3
  newton =   1 [     135] linear =   137 [     18071] cuts =  0 [   0]
  --> max chng: dpmx=   2.1344E+00 dtmpmx=   6.5393E-02

== TH FLOW =====================================================================
 Step    130 Time=  5.90000E+00 Dt=  5.00000E-02 [y] snes_conv_reason:    3
  newton =   1 [     136] linear =   138 [     18209] cuts =  0 [   0]
  --> max chng: dpmx=   2.1346E+00 dtmpmx=   6.5037E-02

== TH FLOW =====================================================================
 Step    131 Time=  5.95000E+00 Dt=  5.00000E-02 [y] snes_conv_reason:    3
  newton =   1 [     137] linear =   135 [     18344] cuts =  0 [   0]
  --> max chng: dpmx=   2.1330E+00 dtmpmx=   6.4695E-02

== TH FLOW =====================================================================
 Step    132 Time=  6.00000E+00 Dt=  5.00000E-02 [y] snes_conv_reason:    3
  newton =   1 [     138] linear =   135 [     18479] cuts =  0 [   0]
  --> max chng: dpmx=   2.1314E+00 dtmpmx=   6.4289E-02

== TH FLOW =====================================================================
 Step    133 Time=  6.05000E+00 Dt=  5.00000E-02 [y] snes_conv_reason:    3
  newton =   1 [     139] linear =   127 [     18606] cuts =  0 [   0]
  --> max chng: dpmx=   2.1295E+00 dtmpmx=   6.3856E-02

== TH FLOW =====================================================================
 Step    134 Time=  6.10000E+00 Dt=  5.00000E-02 [y] snes_conv_reason:    3
  newton =   1 [     140] linear =   136 [     18742] cuts =  0 [   0]
  --> max chng: dpmx=   2.1297E+00 dtmpmx=   6.3727E-02

== TH FLOW =====================================================================
 Step    135 Time=  6.15000E+00 Dt=  5.00000E-02 [y] snes_conv_reason:    3
  newton =   1 [     141] linear =   137 [     18879] cuts =  0 [   0]
  --> max chng: dpmx=   2.1285E+00 dtmpmx=   6.3532E-02

== TH FLOW =====================================================================
 Step    136 Time=  6.20000E+00 Dt=  5.00000E-02 [y] snes_conv_reason:    3
  newton =   1 [     142] linear =   136 [     19015] cuts =  0 [   0]
  --> max chng: dpmx=   2.1274E+00 dtmpmx=   6.3274E-02

== TH FLOW =====================================================================
 Step    137 Time=  6.25000E+00 Dt=  5.00000E-02 [y] snes_conv_reason:    3
  newton =   1 [     143] linear =   137 [     19152] cuts =  0 [   0]
  --> max chng: dpmx=   2.1261E+00 dtmpmx=   6.2953E-02

== TH FLOW =====================================================================
 Step    138 Time=  6.30000E+00 Dt=  5.00000E-02 [y] snes_conv_reason:    3
  newton =   1 [     144] linear =   137 [     19289] cuts =  0 [   0]
  --> max chng: dpmx=   2.1245E+00 dtmpmx=   6.2600E-02

== TH FLOW =====================================================================
 Step    139 Time=  6.35000E+00 Dt=  5.00000E-02 [y] snes_conv_reason:    3
  newton =   1 [     145] linear =   138 [     19427] cuts =  0 [   0]
  --> max chng: dpmx=   2.1235E+00 dtmpmx=   6.2232E-02

== TH FLOW =====================================================================
 Step    140 Time=  6.40000E+00 Dt=  5.00000E-02 [y] snes_conv_reason:    3
  newton =   1 [     146] linear =   133 [     19560] cuts =  0 [   0]
  --> max chng: dpmx=   2.1227E+00 dtmpmx=   6.1866E-02

== TH FLOW =====================================================================
 Step    141 Time=  6.45000E+00 Dt=  5.00000E-02 [y] snes_conv_reason:    3
  newton =   1 [     147] linear =   135 [     19695] cuts =  0 [   0]
  --> max chng: dpmx=   2.1218E+00 dtmpmx=   6.1752E-02

== TH FLOW =====================================================================
 Step    142 Time=  6.50000E+00 Dt=  5.00000E-02 [y] snes_conv_reason:    3
  newton =   1 [     148] linear =   137 [     19832] cuts =  0 [   0]
  --> max chng: dpmx=   2.1211E+00 dtmpmx=   6.1578E-02

== TH FLOW =====================================================================
 Step    143 Time=  6.55000E+00 Dt=  5.00000E-02 [y] snes_conv_reason:    3
  newton =   1 [     149] linear =   137 [     19969] cuts =  0 [   0]
  --> max chng: dpmx=   2.1192E+00 dtmpmx=   6.1345E-02

== TH FLOW =====================================================================
 Step    144 Time=  6.60000E+00 Dt=  5.00000E-02 [y] snes_conv_reason:    3
  newton =   1 [     150] linear =   138 [     20107] cuts =  0 [   0]
  --> max chng: dpmx=   2.1174E+00 dtmpmx=   6.1055E-02

== TH FLOW =====================================================================
 Step    145 Time=  6.65000E+00 Dt=  5.00000E-02 [y] snes_conv_reason:    3
  newton =   1 [     151] linear =   119 [     20226] cuts =  0 [   0]
  --> max chng: dpmx=   2.1174E+00 dtmpmx=   6.0711E-02

== TH FLOW =====================================================================
 Step    146 Time=  6.70000E+00 Dt=  5.00000E-02 [y] snes_conv_reason:    3
  newton =   1 [     152] linear =   134 [     20360] cuts =  0 [   0]
  --> max chng: dpmx=   2.1164E+00 dtmpmx=   6.0360E-02

== TH FLOW =====================================================================
 Step    147 Time=  6.75000E+00 Dt=  5.00000E-02 [y] snes_conv_reason:    3
  newton =   1 [     153] linear =   132 [     20492] cuts =  0 [   0]
  --> max chng: dpmx=   2.1150E+00 dtmpmx=   6.0049E-02

== TH FLOW =====================================================================
 Step    148 Time=  6.80000E+00 Dt=  5.00000E-02 [y] snes_conv_reason:    3
  newton =   1 [     154] linear =   136 [     20628] cuts =  0 [   0]
  --> max chng: dpmx=   2.1138E+00 dtmpmx=   5.9947E-02

== TH FLOW =====================================================================
 Step    149 Time=  6.85000E+00 Dt=  5.00000E-02 [y] snes_conv_reason:    3
  newton =   1 [     155] linear =   136 [     20764] cuts =  0 [   0]
  --> max chng: dpmx=   2.1121E+00 dtmpmx=   5.9791E-02

== TH FLOW =====================================================================
 Step    150 Time=  6.90000E+00 Dt=  5.00000E-02 [y] snes_conv_reason:    3
  newton =   1 [     156] linear =   134 [     20898] cuts =  0 [   0]
  --> max chng: dpmx=   2.1109E+00 dtmpmx=   5.9580E-02

== TH FLOW =====================================================================
 Step    151 Time=  6.95000E+00 Dt=  5.00000E-02 [y] snes_conv_reason:    3
  newton =   1 [     157] linear =   135 [     21033] cuts =  0 [   0]
  --> max chng: dpmx=   2.1104E+00 dtmpmx=   5.9317E-02

== TH FLOW =====================================================================
 Step    152 Time=  7.00000E+00 Dt=  5.00000E-02 [y] snes_conv_reason:    3
  newton =   1 [     158] linear =   138 [     21171] cuts =  0 [   0]
  --> max chng: dpmx=   2.1097E+00 dtmpmx=   5.9004E-02

== TH FLOW =====================================================================
 Step    153 Time=  7.05000E+00 Dt=  5.00000E-02 [y] snes_conv_reason:    3
  newton =   1 [     159] linear =   137 [     21308] cuts =  0 [   0]
  --> max chng: dpmx=   2.1082E+00 dtmpmx=   5.8647E-02

== TH FLOW =====================================================================
 Step    154 Time=  7.10000E+00 Dt=  5.00000E-02 [y] snes_conv_reason:    3
  newton =   1 [     160] linear =   130 [     21438] cuts =  0 [   0]
  --> max chng: dpmx=   2.1066E+00 dtmpmx=   5.8381E-02

== TH FLOW =====================================================================
 Step    155 Time=  7.15000E+00 Dt=  5.00000E-02 [y] snes_conv_reason:    3
  newton =   1 [     161] linear =   135 [     21573] cuts =  0 [   0]
  --> max chng: dpmx=   2.1053E+00 dtmpmx=   5.8290E-02

== TH FLOW =====================================================================
 Step    156 Time=  7.20000E+00 Dt=  5.00000E-02 [y] snes_conv_reason:    3
  newton =   1 [     162] linear =   135 [     21708] cuts =  0 [   0]
  --> max chng: dpmx=   2.1046E+00 dtmpmx=   5.8148E-02

== TH FLOW =====================================================================
 Step    157 Time=  7.25000E+00 Dt=  5.00000E-02 [y] snes_conv_reason:    3
  newton =   1 [     163] linear =   134 [     21842] cuts =  0 [   0]
  --> max chng: dpmx=   2.1033E+00 dtmpmx=   5.7957E-02

== TH FLOW =====================================================================
 Step    158 Time=  7.30000E+00 Dt=  5.00000E-02 [y] snes_conv_reason:    3
  newton =   1 [     164] linear =   135 [     21977] cuts =  0 [   0]
  --> max chng: dpmx=   2.1028E+00 dtmpmx=   5.7717E-02

== TH FLOW =====================================================================
 Step    159 Time=  7.35000E+00 Dt=  5.00000E-02 [y] snes_conv_reason:    3
  newton =   1 [     165] linear =   135 [     22112] cuts =  0 [   0]
  --> max chng: dpmx=   2.1010E+00 dtmpmx=   5.7431E-02

== TH FLOW =====================================================================
 Step    160 Time=  7.40000E+00 Dt=  5.00000E-02 [y] snes_conv_reason:    3
  newton =   1 [     166] linear =   134 [     22246] cuts =  0 [   0]
  --> max chng: dpmx=   2.0995E+00 dtmpmx=   5.7099E-02

== TH FLOW =====================================================================
 Step    161 Time=  7.45000E+00 Dt=  5.00000E-02 [y] snes_conv_reason:    3
  newton =   1 [     167] linear =   136 [     22382] cuts =  0 [   0]
  --> max chng: dpmx=   2.0982E+00 dtmpmx=   5.6841E-02

== TH FLOW =====================================================================
 Step    162 Time=  7.50000E+00 Dt=  5.00000E-02 [y] snes_conv_reason:    3
  newton =   1 [     168] linear =   136 [     22518] cuts =  0 [   0]
  --> max chng: dpmx=   2.0977E+00 dtmpmx=   5.6760E-02

== TH FLOW =====================================================================
 Step    163 Time=  7.55000E+00 Dt=  5.00000E-02 [y] snes_conv_reason:    3
  newton =   1 [     169] linear =   137 [     22655] cuts =  0 [   0]
  --> max chng: dpmx=   2.0966E+00 dtmpmx=   5.6632E-02

== TH FLOW =====================================================================
 Step    164 Time=  7.60000E+00 Dt=  5.00000E-02 [y] snes_conv_reason:    3
  newton =   1 [     170] linear =   136 [     22791] cuts =  0 [   0]
  --> max chng: dpmx=   2.0952E+00 dtmpmx=   5.6458E-02

== TH FLOW =====================================================================
 Step    165 Time=  7.65000E+00 Dt=  5.00000E-02 [y] snes_conv_reason:    3
  newton =   1 [     171] linear =   136 [     22927] cuts =  0 [   0]
  --> max chng: dpmx=   2.0941E+00 dtmpmx=   5.6239E-02

== TH FLOW =====================================================================
 Step    166 Time=  7.70000E+00 Dt=  5.00000E-02 [y] snes_conv_reason:    3
  newton =   1 [     172] linear =   137 [     23064] cuts =  0 [   0]
  --> max chng: dpmx=   2.0920E+00 dtmpmx=   5.5976E-02

== TH FLOW =====================================================================
 Step    167 Time=  7.75000E+00 Dt=  5.00000E-02 [y] snes_conv_reason:    3
  newton =   1 [     173] linear =   135 [     23199] cuts =  0 [   0]
  --> max chng: dpmx=   2.0911E+00 dtmpmx=   5.5670E-02

== TH FLOW =====================================================================
 Step    168 Time=  7.80000E+00 Dt=  5.00000E-02 [y] snes_conv_reason:    3
  newton =   1 [     174] linear =   134 [     23333] cuts =  0 [   0]
  --> max chng: dpmx=   2.0908E+00 dtmpmx=   5.5414E-02

== TH FLOW =====================================================================
 Step    169 Time=  7.85000E+00 Dt=  5.00000E-02 [y] snes_conv_reason:    3
  newton =   1 [     175] linear =   131 [     23464] cuts =  0 [   0]
  --> max chng: dpmx=   2.0897E+00 dtmpmx=   5.5342E-02

== TH FLOW =====================================================================
 Step    170 Time=  7.90000E+00 Dt=  5.00000E-02 [y] snes_conv_reason:    3
  newton =   1 [     176] linear =   135 [     23599] cuts =  0 [   0]
  --> max chng: dpmx=   2.0878E+00 dtmpmx=   5.5226E-02

== TH FLOW =====================================================================
 Step    171 Time=  7.95000E+00 Dt=  5.00000E-02 [y] snes_conv_reason:    3
  newton =   1 [     177] linear =   135 [     23734] cuts =  0 [   0]
  --> max chng: dpmx=   2.0865E+00 dtmpmx=   5.5066E-02

== TH FLOW =====================================================================
 Step    172 Time=  8.00000E+00 Dt=  5.00000E-02 [y] snes_conv_reason:    3
  newton =   1 [     178] linear =   132 [     23866] cuts =  0 [   0]
  --> max chng: dpmx=   2.0846E+00 dtmpmx=   5.4865E-02

== TH FLOW =====================================================================
 Step    173 Time=  8.05000E+00 Dt=  5.00000E-02 [y] snes_conv_reason:    3
  newton =   1 [     179] linear =   133 [     23999] cuts =  0 [   0]
  --> max chng: dpmx=   2.0843E+00 dtmpmx=   5.4623E-02

== TH FLOW =====================================================================
 Step    174 Time=  8.10000E+00 Dt=  5.00000E-02 [y] snes_conv_reason:    3
  newton =   1 [     180] linear =   137 [     24136] cuts =  0 [   0]
  --> max chng: dpmx=   2.0839E+00 dtmpmx=   5.4342E-02

== TH FLOW =====================================================================
 Step    175 Time=  8.15000E+00 Dt=  5.00000E-02 [y] snes_conv_reason:    3
  newton =   1 [     181] linear =   132 [     24268] cuts =  0 [   0]
  --> max chng: dpmx=   2.0817E+00 dtmpmx=   5.4088E-02

== TH FLOW =====================================================================
 Step    176 Time=  8.20000E+00 Dt=  5.00000E-02 [y] snes_conv_reason:    3
  newton =   1 [     182] linear =   138 [     24406] cuts =  0 [   0]
  --> max chng: dpmx=   2.0809E+00 dtmpmx=   5.4023E-02

== TH FLOW =====================================================================
 Step    177 Time=  8.25000E+00 Dt=  5.00000E-02 [y] snes_conv_reason:    3
  newton =   1 [     183] linear =   137 [     24543] cuts =  0 [   0]
  --> max chng: dpmx=   2.0788E+00 dtmpmx=   5.3917E-02

== TH FLOW =====================================================================
 Step    178 Time=  8.30000E+00 Dt=  5.00000E-02 [y] snes_conv_reason:    3
  newton =   1 [     184] linear =   139 [     24682] cuts =  0 [   0]
  --> max chng: dpmx=   2.0778E+00 dtmpmx=   5.3771E-02

== TH FLOW =====================================================================
 Step    179 Time=  8.35000E+00 Dt=  5.00000E-02 [y] snes_conv_reason:    3
  newton =   1 [     185] linear =   135 [     24817] cuts =  0 [   0]
  --> max chng: dpmx=   2.0773E+00 dtmpmx=   5.3586E-02

== TH FLOW =====================================================================
 Step    180 Time=  8.40000E+00 Dt=  5.00000E-02 [y] snes_conv_reason:    3
  newton =   1 [     186] linear =   137 [     24954] cuts =  0 [   0]
  --> max chng: dpmx=   2.0757E+00 dtmpmx=   5.3362E-02

== TH FLOW =====================================================================
 Step    181 Time=  8.45000E+00 Dt=  5.00000E-02 [y] snes_conv_reason:    3
  newton =   1 [     187] linear =   137 [     25091] cuts =  0 [   0]
  --> max chng: dpmx=   2.0744E+00 dtmpmx=   5.3102E-02

== TH FLOW =====================================================================
 Step    182 Time=  8.50000E+00 Dt=  5.00000E-02 [y] snes_conv_reason:    3
  newton =   1 [     188] linear =   139 [     25230] cuts =  0 [   0]
  --> max chng: dpmx=   2.0728E+00 dtmpmx=   5.2849E-02

== TH FLOW =====================================================================
 Step    183 Time=  8.55000E+00 Dt=  5.00000E-02 [y] snes_conv_reason:    3
  newton =   1 [     189] linear =   137 [     25367] cuts =  0 [   0]
  --> max chng: dpmx=   2.0715E+00 dtmpmx=   5.2791E-02

== TH FLOW =====================================================================
 Step    184 Time=  8.60000E+00 Dt=  5.00000E-02 [y] snes_conv_reason:    3
  newton =   1 [     190] linear =   138 [     25505] cuts =  0 [   0]
  --> max chng: dpmx=   2.0704E+00 dtmpmx=   5.2694E-02

== TH FLOW =====================================================================
 Step    185 Time=  8.65000E+00 Dt=  5.00000E-02 [y] snes_conv_reason:    3
  newton =   1 [     191] linear =   139 [     25644] cuts =  0 [   0]
  --> max chng: dpmx=   2.0693E+00 dtmpmx=   5.2560E-02

== TH FLOW =====================================================================
 Step    186 Time=  8.70000E+00 Dt=  5.00000E-02 [y] snes_conv_reason:    3
  newton =   1 [     192] linear =   126 [     25770] cuts =  0 [   0]
  --> max chng: dpmx=   2.0686E+00 dtmpmx=   5.2389E-02

== TH FLOW =====================================================================
 Step    187 Time=  8.75000E+00 Dt=  5.00000E-02 [y] snes_conv_reason:    3
  newton =   1 [     193] linear =   139 [     25909] cuts =  0 [   0]
  --> max chng: dpmx=   2.0666E+00 dtmpmx=   5.2182E-02

== TH FLOW =====================================================================
 Step    188 Time=  8.80000E+00 Dt=  5.00000E-02 [y] snes_conv_reason:    3
  newton =   1 [     194] linear =   129 [     26038] cuts =  0 [   0]
  --> max chng: dpmx=   2.0655E+00 dtmpmx=   5.1941E-02

== TH FLOW =====================================================================
 Step    189 Time=  8.85000E+00 Dt=  5.00000E-02 [y] snes_conv_reason:    3
  newton =   1 [     195] linear =   132 [     26170] cuts =  0 [   0]
  --> max chng: dpmx=   2.0636E+00 dtmpmx=   5.1690E-02

== TH FLOW =====================================================================
 Step    190 Time=  8.90000E+00 Dt=  5.00000E-02 [y] snes_conv_reason:    3
  newton =   1 [     196] linear =   133 [     26303] cuts =  0 [   0]
  --> max chng: dpmx=   2.0631E+00 dtmpmx=   5.1638E-02

== TH FLOW =====================================================================
 Step    191 Time=  8.95000E+00 Dt=  5.00000E-02 [y] snes_conv_reason:    3
  newton =   1 [     197] linear =   127 [     26430] cuts =  0 [   0]
  --> max chng: dpmx=   2.0620E+00 dtmpmx=   5.1549E-02

== TH FLOW =====================================================================
 Step    192 Time=  9.00000E+00 Dt=  5.00000E-02 [y] snes_conv_reason:    3
  newton =   1 [     198] linear =   131 [     26561] cuts =  0 [   0]
  --> max chng: dpmx=   2.0607E+00 dtmpmx=   5.1426E-02

== TH FLOW =====================================================================
 Step    193 Time=  9.05000E+00 Dt=  5.00000E-02 [y] snes_conv_reason:    3
  newton =   1 [     199] linear =   135 [     26696] cuts =  0 [   0]
  --> max chng: dpmx=   2.0588E+00 dtmpmx=   5.1267E-02

== TH FLOW =====================================================================
 Step    194 Time=  9.10000E+00 Dt=  5.00000E-02 [y] snes_conv_reason:    3
  newton =   1 [     200] linear =   135 [     26831] cuts =  0 [   0]
  --> max chng: dpmx=   2.0577E+00 dtmpmx=   5.1075E-02

== TH FLOW =====================================================================
 Step    195 Time=  9.15000E+00 Dt=  5.00000E-02 [y] snes_conv_reason:    3
  newton =   1 [     201] linear =   136 [     26967] cuts =  0 [   0]
  --> max chng: dpmx=   2.0564E+00 dtmpmx=   5.0850E-02

== TH FLOW =====================================================================
 Step    196 Time=  9.20000E+00 Dt=  5.00000E-02 [y] snes_conv_reason:    3
  newton =   1 [     202] linear =   133 [     27100] cuts =  0 [   0]
  --> max chng: dpmx=   2.0554E+00 dtmpmx=   5.0602E-02

== TH FLOW =====================================================================
 Step    197 Time=  9.25000E+00 Dt=  5.00000E-02 [y] snes_conv_reason:    3
  newton =   1 [     203] linear =   135 [     27235] cuts =  0 [   0]
  --> max chng: dpmx=   2.0542E+00 dtmpmx=   5.0555E-02

== TH FLOW =====================================================================
 Step    198 Time=  9.30000E+00 Dt=  5.00000E-02 [y] snes_conv_reason:    3
  newton =   1 [     204] linear =   135 [     27370] cuts =  0 [   0]
  --> max chng: dpmx=   2.0529E+00 dtmpmx=   5.0474E-02

== TH FLOW =====================================================================
 Step    199 Time=  9.35000E+00 Dt=  5.00000E-02 [y] snes_conv_reason:    3
  newton =   1 [     205] linear =   123 [     27493] cuts =  0 [   0]
  --> max chng: dpmx=   2.0508E+00 dtmpmx=   5.0359E-02

== TH FLOW =====================================================================
 Step    200 Time=  9.40000E+00 Dt=  5.00000E-02 [y] snes_conv_reason:    3
  newton =   1 [     206] linear =   137 [     27630] cuts =  0 [   0]
  --> max chng: dpmx=   2.0497E+00 dtmpmx=   5.0212E-02

== TH FLOW =====================================================================
 Step    201 Time=  9.45000E+00 Dt=  5.00000E-02 [y] snes_conv_reason:    3
  newton =   1 [     207] linear =   135 [     27765] cuts =  0 [   0]
  --> max chng: dpmx=   2.0488E+00 dtmpmx=   5.0034E-02

== TH FLOW =====================================================================
 Step    202 Time=  9.50000E+00 Dt=  5.00000E-02 [y] snes_conv_reason:    3
  newton =   1 [     208] linear =   135 [     27900] cuts =  0 [   0]
  --> max chng: dpmx=   2.0473E+00 dtmpmx=   4.9824E-02

== TH FLOW =====================================================================
 Step    203 Time=  9.55000E+00 Dt=  5.00000E-02 [y] snes_conv_reason:    3
  newton =   1 [     209] linear =   132 [     28032] cuts =  0 [   0]
  --> max chng: dpmx=   2.0464E+00 dtmpmx=   4.9584E-02

== TH FLOW =====================================================================
 Step    204 Time=  9.60000E+00 Dt=  5.00000E-02 [y] snes_conv_reason:    3
  newton =   1 [     210] linear =   125 [     28157] cuts =  0 [   0]
  --> max chng: dpmx=   2.0448E+00 dtmpmx=   4.9535E-02

== TH FLOW =====================================================================
 Step    205 Time=  9.65000E+00 Dt=  5.00000E-02 [y] snes_conv_reason:    3
  newton =   1 [     211] linear =   136 [     28293] cuts =  0 [   0]
  --> max chng: dpmx=   2.0433E+00 dtmpmx=   4.9461E-02

== TH FLOW =====================================================================
 Step    206 Time=  9.70000E+00 Dt=  5.00000E-02 [y] snes_conv_reason:    3
  newton =   1 [     212] linear =   134 [     28427] cuts =  0 [   0]
  --> max chng: dpmx=   2.0418E+00 dtmpmx=   4.9355E-02

== TH FLOW =====================================================================
 Step    207 Time=  9.75000E+00 Dt=  5.00000E-02 [y] snes_conv_reason:    3
  newton =   1 [     213] linear =   134 [     28561] cuts =  0 [   0]
  --> max chng: dpmx=   2.0406E+00 dtmpmx=   4.9218E-02

== TH FLOW =====================================================================
 Step    208 Time=  9.80000E+00 Dt=  5.00000E-02 [y] snes_conv_reason:    3
  newton =   1 [     214] linear =   130 [     28691] cuts =  0 [   0]
  --> max chng: dpmx=   2.0393E+00 dtmpmx=   4.9051E-02

== TH FLOW =====================================================================
 Step    209 Time=  9.85000E+00 Dt=  5.00000E-02 [y] snes_conv_reason:    3
  newton =   1 [     215] linear =   130 [     28821] cuts =  0 [   0]
  --> max chng: dpmx=   2.0384E+00 dtmpmx=   4.8855E-02

== TH FLOW =====================================================================
 Step    210 Time=  9.90000E+00 Dt=  5.00000E-02 [y] snes_conv_reason:    3
  newton =   1 [     216] linear =   130 [     28951] cuts =  0 [   0]
  --> max chng: dpmx=   2.0368E+00 dtmpmx=   4.8630E-02

== TH FLOW =====================================================================
 Step    211 Time=  9.95000E+00 Dt=  5.00000E-02 [y] snes_conv_reason:    3
  newton =   1 [     217] linear =   131 [     29082] cuts =  0 [   0]
  --> max chng: dpmx=   2.0350E+00 dtmpmx=   4.8573E-02

== TH FLOW =====================================================================
 Step    212 Time=  1.00000E+01 Dt=  5.00000E-02 [y] snes_conv_reason:    3
  newton =   1 [     218] linear =   136 [     29218] cuts =  0 [   0]
  --> max chng: dpmx=   2.0338E+00 dtmpmx=   4.8504E-02

== TH FLOW =====================================================================
 Step    213 Time=  1.00500E+01 Dt=  5.00000E-02 [y] snes_conv_reason:    3
  newton =   1 [     219] linear =   138 [     29356] cuts =  0 [   0]
  --> max chng: dpmx=   2.0326E+00 dtmpmx=   4.8406E-02

== TH FLOW =====================================================================
 Step    214 Time=  1.01000E+01 Dt=  5.00000E-02 [y] snes_conv_reason:    3
  newton =   1 [     220] linear =   128 [     29484] cuts =  0 [   0]
  --> max chng: dpmx=   2.0317E+00 dtmpmx=   4.8278E-02

== TH FLOW =====================================================================
 Step    215 Time=  1.01500E+01 Dt=  5.00000E-02 [y] snes_conv_reason:    3
  newton =   1 [     221] linear =   138 [     29622] cuts =  0 [   0]
  --> max chng: dpmx=   2.0301E+00 dtmpmx=   4.8122E-02

== TH FLOW =====================================================================
 Step    216 Time=  1.02000E+01 Dt=  5.00000E-02 [y] snes_conv_reason:    3
  newton =   1 [     222] linear =   138 [     29760] cuts =  0 [   0]
  --> max chng: dpmx=   2.0287E+00 dtmpmx=   4.7938E-02

== TH FLOW =====================================================================
 Step    217 Time=  1.02500E+01 Dt=  5.00000E-02 [y] snes_conv_reason:    3
  newton =   1 [     223] linear =   129 [     29889] cuts =  0 [   0]
  --> max chng: dpmx=   2.0267E+00 dtmpmx=   4.7727E-02

== TH FLOW =====================================================================
 Step    218 Time=  1.03000E+01 Dt=  5.00000E-02 [y] snes_conv_reason:    3
  newton =   1 [     224] linear =   130 [     30019] cuts =  0 [   0]
  --> max chng: dpmx=   2.0261E+00 dtmpmx=   4.7662E-02

== TH FLOW =====================================================================
 Step    219 Time=  1.03500E+01 Dt=  5.00000E-02 [y] snes_conv_reason:    3
  newton =   1 [     225] linear =   131 [     30150] cuts =  0 [   0]
  --> max chng: dpmx=   2.0244E+00 dtmpmx=   4.7599E-02

== TH FLOW =====================================================================
 Step    220 Time=  1.04000E+01 Dt=  5.00000E-02 [y] snes_conv_reason:    3
  newton =   1 [     226] linear =   132 [     30282] cuts =  0 [   0]
  --> max chng: dpmx=   2.0235E+00 dtmpmx=   4.7508E-02

== TH FLOW =====================================================================
 Step    221 Time=  1.04500E+01 Dt=  5.00000E-02 [y] snes_conv_reason:    3
  newton =   1 [     227] linear =   132 [     30414] cuts =  0 [   0]
  --> max chng: dpmx=   2.0220E+00 dtmpmx=   4.7388E-02

== TH FLOW =====================================================================
 Step    222 Time=  1.05000E+01 Dt=  5.00000E-02 [y] snes_conv_reason:    3
  newton =   1 [     228] linear =   133 [     30547] cuts =  0 [   0]
  --> max chng: dpmx=   2.0202E+00 dtmpmx=   4.7242E-02

== TH FLOW =====================================================================
 Step    223 Time=  1.05500E+01 Dt=  5.00000E-02 [y] snes_conv_reason:    3
  newton =   1 [     229] linear =   130 [     30677] cuts =  0 [   0]
  --> max chng: dpmx=   2.0187E+00 dtmpmx=   4.7069E-02

== TH FLOW =====================================================================
 Step    224 Time=  1.06000E+01 Dt=  5.00000E-02 [y] snes_conv_reason:    3
  newton =   1 [     230] linear =   133 [     30810] cuts =  0 [   0]
  --> max chng: dpmx=   2.0173E+00 dtmpmx=   4.6871E-02

== TH FLOW =====================================================================
 Step    225 Time=  1.06500E+01 Dt=  5.00000E-02 [y] snes_conv_reason:    3
  newton =   1 [     231] linear =   133 [     30943] cuts =  0 [   0]
  --> max chng: dpmx=   2.0165E+00 dtmpmx=   4.6800E-02

== TH FLOW =====================================================================
 Step    226 Time=  1.07000E+01 Dt=  5.00000E-02 [y] snes_conv_reason:    3
  newton =   1 [     232] linear =   133 [     31076] cuts =  0 [   0]
  --> max chng: dpmx=   2.0148E+00 dtmpmx=   4.6741E-02

== TH FLOW =====================================================================
 Step    227 Time=  1.07500E+01 Dt=  5.00000E-02 [y] snes_conv_reason:    3
  newton =   1 [     233] linear =   134 [     31210] cuts =  0 [   0]
  --> max chng: dpmx=   2.0137E+00 dtmpmx=   4.6656E-02

== TH FLOW =====================================================================
 Step    228 Time=  1.08000E+01 Dt=  5.00000E-02 [y] snes_conv_reason:    3
  newton =   1 [     234] linear =   135 [     31345] cuts =  0 [   0]
  --> max chng: dpmx=   2.0122E+00 dtmpmx=   4.6544E-02

== TH FLOW =====================================================================
 Step    229 Time=  1.08500E+01 Dt=  5.00000E-02 [y] snes_conv_reason:    3
  newton =   1 [     235] linear =   131 [     31476] cuts =  0 [   0]
  --> max chng: dpmx=   2.0102E+00 dtmpmx=   4.6407E-02

== TH FLOW =====================================================================
 Step    230 Time=  1.09000E+01 Dt=  5.00000E-02 [y] snes_conv_reason:    3
  newton =   1 [     236] linear =   134 [     31610] cuts =  0 [   0]
  --> max chng: dpmx=   2.0089E+00 dtmpmx=   4.6244E-02

== TH FLOW =====================================================================
 Step    231 Time=  1.09500E+01 Dt=  5.00000E-02 [y] snes_conv_reason:    3
  newton =   1 [     237] linear =   135 [     31745] cuts =  0 [   0]
  --> max chng: dpmx=   2.0085E+00 dtmpmx=   4.6057E-02

== TH FLOW =====================================================================
 Step    232 Time=  1.10000E+01 Dt=  5.00000E-02 [y] snes_conv_reason:    3
  newton =   1 [     238] linear =   133 [     31878] cuts =  0 [   0]
  --> max chng: dpmx=   2.0065E+00 dtmpmx=   4.5980E-02

== TH FLOW =====================================================================
 Step    233 Time=  1.10500E+01 Dt=  5.00000E-02 [y] snes_conv_reason:    3
  newton =   1 [     239] linear =   131 [     32009] cuts =  0 [   0]
  --> max chng: dpmx=   2.0053E+00 dtmpmx=   4.5926E-02

== TH FLOW =====================================================================
 Step    234 Time=  1.11000E+01 Dt=  5.00000E-02 [y] snes_conv_reason:    3
  newton =   1 [     240] linear =   131 [     32140] cuts =  0 [   0]
  --> max chng: dpmx=   2.0034E+00 dtmpmx=   4.5846E-02

== TH FLOW =====================================================================
 Step    235 Time=  1.11500E+01 Dt=  5.00000E-02 [y] snes_conv_reason:    3
  newton =   1 [     241] linear =   134 [     32274] cuts =  0 [   0]
  --> max chng: dpmx=   2.0023E+00 dtmpmx=   4.5741E-02

== TH FLOW =====================================================================
 Step    236 Time=  1.12000E+01 Dt=  5.00000E-02 [y] snes_conv_reason:    3
  newton =   1 [     242] linear =   133 [     32407] cuts =  0 [   0]
  --> max chng: dpmx=   2.0009E+00 dtmpmx=   4.5612E-02

== TH FLOW =====================================================================
 Step    237 Time=  1.12500E+01 Dt=  5.00000E-02 [y] snes_conv_reason:    3
  newton =   1 [     243] linear =   136 [     32543] cuts =  0 [   0]
  --> max chng: dpmx=   1.9999E+00 dtmpmx=   4.5459E-02

== TH FLOW =====================================================================
 Step    238 Time=  1.13000E+01 Dt=  5.00000E-02 [y] snes_conv_reason:    3
  newton =   1 [     244] linear =   134 [     32677] cuts =  0 [   0]
  --> max chng: dpmx=   1.9980E+00 dtmpmx=   4.5282E-02

== TH FLOW =====================================================================
 Step    239 Time=  1.13500E+01 Dt=  5.00000E-02 [y] snes_conv_reason:    3
  newton =   1 [     245] linear =   133 [     32810] cuts =  0 [   0]
  --> max chng: dpmx=   1.9969E+00 dtmpmx=   4.5200E-02

== TH FLOW =====================================================================
 Step    240 Time=  1.14000E+01 Dt=  5.00000E-02 [y] snes_conv_reason:    3
  newton =   1 [     246] linear =   133 [     32943] cuts =  0 [   0]
  --> max chng: dpmx=   1.9950E+00 dtmpmx=   4.5150E-02

== TH FLOW =====================================================================
 Step    241 Time=  1.14500E+01 Dt=  5.00000E-02 [y] snes_conv_reason:    3
  newton =   1 [     247] linear =   129 [     33072] cuts =  0 [   0]
  --> max chng: dpmx=   1.9934E+00 dtmpmx=   4.5075E-02

== TH FLOW =====================================================================
 Step    242 Time=  1.15000E+01 Dt=  5.00000E-02 [y] snes_conv_reason:    3
  newton =   1 [     248] linear =   130 [     33202] cuts =  0 [   0]
  --> max chng: dpmx=   1.9926E+00 dtmpmx=   4.4976E-02

== TH FLOW =====================================================================
 Step    243 Time=  1.15500E+01 Dt=  5.00000E-02 [y] snes_conv_reason:    3
  newton =   1 [     249] linear =   134 [     33336] cuts =  0 [   0]
  --> max chng: dpmx=   1.9910E+00 dtmpmx=   4.4855E-02

== TH FLOW =====================================================================
 Step    244 Time=  1.16000E+01 Dt=  5.00000E-02 [y] snes_conv_reason:    3
  newton =   1 [     250] linear =   133 [     33469] cuts =  0 [   0]
  --> max chng: dpmx=   1.9898E+00 dtmpmx=   4.4710E-02

== TH FLOW =====================================================================
 Step    245 Time=  1.16500E+01 Dt=  5.00000E-02 [y] snes_conv_reason:    3
  newton =   1 [     251] linear =   135 [     33604] cuts =  0 [   0]
  --> max chng: dpmx=   1.9880E+00 dtmpmx=   4.4543E-02

== TH FLOW =====================================================================
 Step    246 Time=  1.17000E+01 Dt=  5.00000E-02 [y] snes_conv_reason:    3
  newton =   1 [     252] linear =   135 [     33739] cuts =  0 [   0]
  --> max chng: dpmx=   1.9865E+00 dtmpmx=   4.4457E-02

== TH FLOW =====================================================================
 Step    247 Time=  1.17500E+01 Dt=  5.00000E-02 [y] snes_conv_reason:    3
  newton =   1 [     253] linear =   137 [     33876] cuts =  0 [   0]
  --> max chng: dpmx=   1.9851E+00 dtmpmx=   4.4410E-02

== TH FLOW =====================================================================
 Step    248 Time=  1.18000E+01 Dt=  5.00000E-02 [y] snes_conv_reason:    3
  newton =   1 [     254] linear =   135 [     34011] cuts =  0 [   0]
  --> max chng: dpmx=   1.9840E+00 dtmpmx=   4.4340E-02

== TH FLOW =====================================================================
 Step    249 Time=  1.18500E+01 Dt=  5.00000E-02 [y] snes_conv_reason:    3
  newton =   1 [     255] linear =   135 [     34146] cuts =  0 [   0]
  --> max chng: dpmx=   1.9824E+00 dtmpmx=   4.4247E-02

== TH FLOW =====================================================================
 Step    250 Time=  1.19000E+01 Dt=  5.00000E-02 [y] snes_conv_reason:    3
  newton =   1 [     256] linear =   135 [     34281] cuts =  0 [   0]
  --> max chng: dpmx=   1.9811E+00 dtmpmx=   4.4132E-02

== TH FLOW =====================================================================
 Step    251 Time=  1.19500E+01 Dt=  5.00000E-02 [y] snes_conv_reason:    3
  newton =   1 [     257] linear =   135 [     34416] cuts =  0 [   0]
  --> max chng: dpmx=   1.9795E+00 dtmpmx=   4.3995E-02

== TH FLOW =====================================================================
 Step    252 Time=  1.20000E+01 Dt=  5.00000E-02 [y] snes_conv_reason:    3
  newton =   1 [     258] linear =   134 [     34550] cuts =  0 [   0]
  --> max chng: dpmx=   1.9776E+00 dtmpmx=   4.3836E-02

== TH FLOW =====================================================================
 Step    253 Time=  1.20500E+01 Dt=  5.00000E-02 [y] snes_conv_reason:    3
  newton =   1 [     259] linear =   135 [     34685] cuts =  0 [   0]
  --> max chng: dpmx=   1.9767E+00 dtmpmx=   4.3747E-02

== TH FLOW =====================================================================
 Step    254 Time=  1.21000E+01 Dt=  5.00000E-02 [y] snes_conv_reason:    3
  newton =   1 [     260] linear =   135 [     34820] cuts =  0 [   0]
  --> max chng: dpmx=   1.9752E+00 dtmpmx=   4.3704E-02

== TH FLOW =====================================================================
 Step    255 Time=  1.21500E+01 Dt=  5.00000E-02 [y] snes_conv_reason:    3
  newton =   1 [     261] linear =   134 [     34954] cuts =  0 [   0]
  --> max chng: dpmx=   1.9736E+00 dtmpmx=   4.3638E-02

== TH FLOW =====================================================================
 Step    256 Time=  1.22000E+01 Dt=  5.00000E-02 [y] snes_conv_reason:    3
  newton =   1 [     262] linear =   124 [     35078] cuts =  0 [   0]
  --> max chng: dpmx=   1.9728E+00 dtmpmx=   4.3550E-02

== TH FLOW =====================================================================
 Step    257 Time=  1.22500E+01 Dt=  5.00000E-02 [y] snes_conv_reason:    3
  newton =   1 [     263] linear =   135 [     35213] cuts =  0 [   0]
  --> max chng: dpmx=   1.9708E+00 dtmpmx=   4.3441E-02

[...]
 Step    493 Time=  2.40500E+01 Dt=  5.00000E-02 [y] snes_conv_reason:    3
  newton =   1 [     499] linear =   134 [     66449] cuts =  0 [   0]
  --> max chng: dpmx=   1.5963E+00 dtmpmx=   2.9877E-02

== TH FLOW =====================================================================
 Step    494 Time=  2.41000E+01 Dt=  5.00000E-02 [y] snes_conv_reason:    3
  newton =   1 [     500] linear =   133 [     66582] cuts =  0 [   0]
  --> max chng: dpmx=   1.5943E+00 dtmpmx=   2.9849E-02

== TH FLOW =====================================================================
 Step    495 Time=  2.41500E+01 Dt=  5.00000E-02 [y] snes_conv_reason:    3
  newton =   1 [     501] linear =   129 [     66711] cuts =  0 [   0]
  --> max chng: dpmx=   1.5931E+00 dtmpmx=   2.9814E-02

== TH FLOW =====================================================================
 Step    496 Time=  2.42000E+01 Dt=  5.00000E-02 [y] snes_conv_reason:    3
  newton =   1 [     502] linear =   129 [     66840] cuts =  0 [   0]
  --> max chng: dpmx=   1.5913E+00 dtmpmx=   2.9771E-02

== TH FLOW =====================================================================
 Step    497 Time=  2.42500E+01 Dt=  5.00000E-02 [y] snes_conv_reason:    3
  newton =   1 [     503] linear =   128 [     66968] cuts =  0 [   0]
  --> max chng: dpmx=   1.5895E+00 dtmpmx=   2.9721E-02

== TH FLOW =====================================================================
 Step    498 Time=  2.43000E+01 Dt=  5.00000E-02 [y] snes_conv_reason:    3
  newton =   1 [     504] linear =   128 [     67096] cuts =  0 [   0]
  --> max chng: dpmx=   1.5879E+00 dtmpmx=   2.9664E-02

== TH FLOW =====================================================================
 Step    499 Time=  2.43500E+01 Dt=  5.00000E-02 [y] snes_conv_reason:    3
  newton =   1 [     505] linear =   133 [     67229] cuts =  0 [   0]
  --> max chng: dpmx=   1.5862E+00 dtmpmx=   2.9651E-02

== TH FLOW =====================================================================
 Step    500 Time=  2.44000E+01 Dt=  5.00000E-02 [y] snes_conv_reason:    3
  newton =   1 [     506] linear =   134 [     67363] cuts =  0 [   0]
  --> max chng: dpmx=   1.5844E+00 dtmpmx=   2.9631E-02

== TH FLOW =====================================================================
 Step    501 Time=  2.44500E+01 Dt=  5.00000E-02 [y] snes_conv_reason:    3
  newton =   1 [     507] linear =   134 [     67497] cuts =  0 [   0]
  --> max chng: dpmx=   1.5828E+00 dtmpmx=   2.9604E-02

== TH FLOW =====================================================================
 Step    502 Time=  2.45000E+01 Dt=  5.00000E-02 [y] snes_conv_reason:    3
  newton =   1 [     508] linear =   128 [     67625] cuts =  0 [   0]
  --> max chng: dpmx=   1.5810E+00 dtmpmx=   2.9569E-02

== TH FLOW =====================================================================
 Step    503 Time=  2.45500E+01 Dt=  5.00000E-02 [y] snes_conv_reason:    3
  newton =   1 [     509] linear =   133 [     67758] cuts =  0 [   0]
  --> max chng: dpmx=   1.5796E+00 dtmpmx=   2.9527E-02

== TH FLOW =====================================================================
 Step    504 Time=  2.46000E+01 Dt=  5.00000E-02 [y] snes_conv_reason:    3
  newton =   1 [     510] linear =   134 [     67892] cuts =  0 [   0]
  --> max chng: dpmx=   1.5779E+00 dtmpmx=   2.9477E-02

== TH FLOW =====================================================================
 Step    505 Time=  2.46500E+01 Dt=  5.00000E-02 [y] snes_conv_reason:    3
  newton =   1 [     511] linear =   134 [     68026] cuts =  0 [   0]
  --> max chng: dpmx=   1.5762E+00 dtmpmx=   2.9423E-02

== TH FLOW =====================================================================
 Step    506 Time=  2.47000E+01 Dt=  5.00000E-02 [y] snes_conv_reason:    3
  newton =   1 [     512] linear =   134 [     68160] cuts =  0 [   0]
  --> max chng: dpmx=   1.5746E+00 dtmpmx=   2.9410E-02

== TH FLOW =====================================================================
 Step    507 Time=  2.47500E+01 Dt=  5.00000E-02 [y] snes_conv_reason:    3
  newton =   1 [     513] linear =   133 [     68293] cuts =  0 [   0]
  --> max chng: dpmx=   1.5727E+00 dtmpmx=   2.9390E-02

== TH FLOW =====================================================================
 Step    508 Time=  2.48000E+01 Dt=  5.00000E-02 [y] snes_conv_reason:    3
  newton =   1 [     514] linear =   135 [     68428] cuts =  0 [   0]
  --> max chng: dpmx=   1.5709E+00 dtmpmx=   2.9363E-02

== TH FLOW =====================================================================
 Step    509 Time=  2.48500E+01 Dt=  5.00000E-02 [y] snes_conv_reason:    3
  newton =   1 [     515] linear =   134 [     68562] cuts =  0 [   0]
  --> max chng: dpmx=   1.5694E+00 dtmpmx=   2.9329E-02

== TH FLOW =====================================================================
 Step    510 Time=  2.49000E+01 Dt=  5.00000E-02 [y] snes_conv_reason:    3
  newton =   1 [     516] linear =   134 [     68696] cuts =  0 [   0]
  --> max chng: dpmx=   1.5678E+00 dtmpmx=   2.9287E-02

== TH FLOW =====================================================================
 Step    511 Time=  2.49500E+01 Dt=  5.00000E-02 [y] snes_conv_reason:    3
  newton =   1 [     517] linear =   125 [     68821] cuts =  0 [   0]
  --> max chng: dpmx=   1.5661E+00 dtmpmx=   2.9239E-02

== TH FLOW =====================================================================
 Step    512 Time=  2.50000E+01 Dt=  5.00000E-02 [y] snes_conv_reason:    3
  newton =   1 [     518] linear =   126 [     68947] cuts =  0 [   0]
  --> max chng: dpmx=   1.5647E+00 dtmpmx=   2.9187E-02

== TH FLOW =====================================================================
 Step    513 Time=  2.50500E+01 Dt=  5.00000E-02 [y] snes_conv_reason:    3
  newton =   1 [     519] linear =   126 [     69073] cuts =  0 [   0]
  --> max chng: dpmx=   1.5628E+00 dtmpmx=   2.9174E-02

== TH FLOW =====================================================================
 Step    514 Time=  2.51000E+01 Dt=  5.00000E-02 [y] snes_conv_reason:    3
  newton =   1 [     520] linear =   128 [     69201] cuts =  0 [   0]
  --> max chng: dpmx=   1.5606E+00 dtmpmx=   2.9154E-02

== TH FLOW =====================================================================
 Step    515 Time=  2.51500E+01 Dt=  5.00000E-02 [y] snes_conv_reason:    3
  newton =   1 [     521] linear =   133 [     69334] cuts =  0 [   0]
  --> max chng: dpmx=   1.5593E+00 dtmpmx=   2.9127E-02

== TH FLOW =====================================================================
 Step    516 Time=  2.52000E+01 Dt=  5.00000E-02 [y] snes_conv_reason:    3
  newton =   1 [     522] linear =   134 [     69468] cuts =  0 [   0]
  --> max chng: dpmx=   1.5578E+00 dtmpmx=   2.9093E-02

== TH FLOW =====================================================================
 Step    517 Time=  2.52500E+01 Dt=  5.00000E-02 [y] snes_conv_reason:    3
  newton =   1 [     523] linear =   134 [     69602] cuts =  0 [   0]
  --> max chng: dpmx=   1.5561E+00 dtmpmx=   2.9053E-02

== TH FLOW =====================================================================
 Step    518 Time=  2.53000E+01 Dt=  5.00000E-02 [y] snes_conv_reason:    3
  newton =   1 [     524] linear =   134 [     69736] cuts =  0 [   0]
  --> max chng: dpmx=   1.5544E+00 dtmpmx=   2.9005E-02

== TH FLOW =====================================================================
 Step    519 Time=  2.53500E+01 Dt=  5.00000E-02 [y] snes_conv_reason:    3
  newton =   1 [     525] linear =   128 [     69864] cuts =  0 [   0]
  --> max chng: dpmx=   1.5528E+00 dtmpmx=   2.8955E-02

== TH FLOW =====================================================================
 Step    520 Time=  2.54000E+01 Dt=  5.00000E-02 [y] snes_conv_reason:    3
  newton =   1 [     526] linear =   128 [     69992] cuts =  0 [   0]
  --> max chng: dpmx=   1.5504E+00 dtmpmx=   2.8942E-02

== TH FLOW =====================================================================
 Step    521 Time=  2.54500E+01 Dt=  5.00000E-02 [y] snes_conv_reason:    3
  newton =   1 [     527] linear =   122 [     70114] cuts =  0 [   0]
  --> max chng: dpmx=   1.5492E+00 dtmpmx=   2.8923E-02

== TH FLOW =====================================================================
 Step    522 Time=  2.55000E+01 Dt=  5.00000E-02 [y] snes_conv_reason:    3
  newton =   1 [     528] linear =   135 [     70249] cuts =  0 [   0]
  --> max chng: dpmx=   1.5478E+00 dtmpmx=   2.8896E-02

== TH FLOW =====================================================================
 Step    523 Time=  2.55500E+01 Dt=  5.00000E-02 [y] snes_conv_reason:    3
  newton =   1 [     529] linear =   135 [     70384] cuts =  0 [   0]
  --> max chng: dpmx=   1.5460E+00 dtmpmx=   2.8863E-02

== TH FLOW =====================================================================
 Step    524 Time=  2.56000E+01 Dt=  5.00000E-02 [y] snes_conv_reason:    3
  newton =   1 [     530] linear =   133 [     70517] cuts =  0 [   0]
  --> max chng: dpmx=   1.5441E+00 dtmpmx=   2.8823E-02

== TH FLOW =====================================================================
 Step    525 Time=  2.56500E+01 Dt=  5.00000E-02 [y] snes_conv_reason:    3
  newton =   1 [     531] linear =   132 [     70649] cuts =  0 [   0]
  --> max chng: dpmx=   1.5426E+00 dtmpmx=   2.8776E-02

== TH FLOW =====================================================================
 Step    526 Time=  2.57000E+01 Dt=  5.00000E-02 [y] snes_conv_reason:    3
  newton =   1 [     532] linear =   133 [     70782] cuts =  0 [   0]
  --> max chng: dpmx=   1.5408E+00 dtmpmx=   2.8728E-02

== TH FLOW =====================================================================
 Step    527 Time=  2.57500E+01 Dt=  5.00000E-02 [y] snes_conv_reason:    3
  newton =   1 [     533] linear =   133 [     70915] cuts =  0 [   0]
  --> max chng: dpmx=   1.5391E+00 dtmpmx=   2.8715E-02

== TH FLOW =====================================================================
 Step    528 Time=  2.58000E+01 Dt=  5.00000E-02 [y] snes_conv_reason:    3
  newton =   1 [     534] linear =   125 [     71040] cuts =  0 [   0]
  --> max chng: dpmx=   1.5374E+00 dtmpmx=   2.8696E-02

== TH FLOW =====================================================================
 Step    529 Time=  2.58500E+01 Dt=  5.00000E-02 [y] snes_conv_reason:    3
  newton =   1 [     535] linear =   120 [     71160] cuts =  0 [   0]
  --> max chng: dpmx=   1.5359E+00 dtmpmx=   2.8670E-02

== TH FLOW =====================================================================
 Step    530 Time=  2.59000E+01 Dt=  5.00000E-02 [y] snes_conv_reason:    3
  newton =   1 [     536] linear =   133 [     71293] cuts =  0 [   0]
  --> max chng: dpmx=   1.5344E+00 dtmpmx=   2.8637E-02

== TH FLOW =====================================================================
 Step    531 Time=  2.59500E+01 Dt=  5.00000E-02 [y] snes_conv_reason:    3
  newton =   1 [     537] linear =   135 [     71428] cuts =  0 [   0]
  --> max chng: dpmx=   1.5324E+00 dtmpmx=   2.8597E-02

== TH FLOW =====================================================================
 Step    532 Time=  2.60000E+01 Dt=  5.00000E-02 [y] snes_conv_reason:    3
  newton =   1 [     538] linear =   129 [     71557] cuts =  0 [   0]
  --> max chng: dpmx=   1.5306E+00 dtmpmx=   2.8551E-02

== TH FLOW =====================================================================
 Step    533 Time=  2.60500E+01 Dt=  5.00000E-02 [y] snes_conv_reason:    3
  newton =   1 [     539] linear =   131 [     71688] cuts =  0 [   0]
  --> max chng: dpmx=   1.5287E+00 dtmpmx=   2.8506E-02

== TH FLOW =====================================================================
 Step    534 Time=  2.61000E+01 Dt=  5.00000E-02 [y] snes_conv_reason:    3
  newton =   1 [     540] linear =   129 [     71817] cuts =  0 [   0]
  --> max chng: dpmx=   1.5277E+00 dtmpmx=   2.8493E-02

== TH FLOW =====================================================================
 Step    535 Time=  2.61500E+01 Dt=  5.00000E-02 [y] snes_conv_reason:    3
  newton =   1 [     541] linear =   125 [     71942] cuts =  0 [   0]
  --> max chng: dpmx=   1.5254E+00 dtmpmx=   2.8473E-02

== TH FLOW =====================================================================
 Step    536 Time=  2.62000E+01 Dt=  5.00000E-02 [y] snes_conv_reason:    3
  newton =   1 [     542] linear =   133 [     72075] cuts =  0 [   0]
  --> max chng: dpmx=   1.5241E+00 dtmpmx=   2.8447E-02

== TH FLOW =====================================================================
 Step    537 Time=  2.62500E+01 Dt=  5.00000E-02 [y] snes_conv_reason:    3
  newton =   1 [     543] linear =   130 [     72205] cuts =  0 [   0]
  --> max chng: dpmx=   1.5223E+00 dtmpmx=   2.8415E-02

== TH FLOW =====================================================================
 Step    538 Time=  2.63000E+01 Dt=  5.00000E-02 [y] snes_conv_reason:    3
  newton =   1 [     544] linear =   130 [     72335] cuts =  0 [   0]
  --> max chng: dpmx=   1.5205E+00 dtmpmx=   2.8376E-02

== TH FLOW =====================================================================
 Step    539 Time=  2.63500E+01 Dt=  5.00000E-02 [y] snes_conv_reason:    3
  newton =   1 [     545] linear =   130 [     72465] cuts =  0 [   0]
  --> max chng: dpmx=   1.5188E+00 dtmpmx=   2.8330E-02

== TH FLOW =====================================================================
 Step    540 Time=  2.64000E+01 Dt=  5.00000E-02 [y] snes_conv_reason:    3
  newton =   1 [     546] linear =   129 [     72594] cuts =  0 [   0]
  --> max chng: dpmx=   1.5170E+00 dtmpmx=   2.8287E-02

== TH FLOW =====================================================================
 Step    541 Time=  2.64500E+01 Dt=  5.00000E-02 [y] snes_conv_reason:    3
  newton =   1 [     547] linear =   129 [     72723] cuts =  0 [   0]
  --> max chng: dpmx=   1.5157E+00 dtmpmx=   2.8275E-02

== TH FLOW =====================================================================
 Step    542 Time=  2.65000E+01 Dt=  5.00000E-02 [y] snes_conv_reason:    3
  newton =   1 [     548] linear =   130 [     72853] cuts =  0 [   0]
  --> max chng: dpmx=   1.5141E+00 dtmpmx=   2.8255E-02

== TH FLOW =====================================================================
 Step    543 Time=  2.65500E+01 Dt=  5.00000E-02 [y] snes_conv_reason:    3
  newton =   1 [     549] linear =   134 [     72987] cuts =  0 [   0]
  --> max chng: dpmx=   1.5121E+00 dtmpmx=   2.8229E-02

== TH FLOW =====================================================================
 Step    544 Time=  2.66000E+01 Dt=  5.00000E-02 [y] snes_conv_reason:    3
  newton =   1 [     550] linear =   128 [     73115] cuts =  0 [   0]
  --> max chng: dpmx=   1.5103E+00 dtmpmx=   2.8197E-02

== TH FLOW =====================================================================
 Step    545 Time=  2.66500E+01 Dt=  5.00000E-02 [y] snes_conv_reason:    3
  newton =   1 [     551] linear =   132 [     73247] cuts =  0 [   0]
  --> max chng: dpmx=   1.5086E+00 dtmpmx=   2.8159E-02

== TH FLOW =====================================================================
 Step    546 Time=  2.67000E+01 Dt=  5.00000E-02 [y] snes_conv_reason:    3
  newton =   1 [     552] linear =   132 [     73379] cuts =  0 [   0]
  --> max chng: dpmx=   1.5070E+00 dtmpmx=   2.8114E-02

== TH FLOW =====================================================================
 Step    547 Time=  2.67500E+01 Dt=  5.00000E-02 [y] snes_conv_reason:    3
  newton =   1 [     553] linear =   132 [     73511] cuts =  0 [   0]
  --> max chng: dpmx=   1.5054E+00 dtmpmx=   2.8073E-02

== TH FLOW =====================================================================
 Step    548 Time=  2.68000E+01 Dt=  5.00000E-02 [y] snes_conv_reason:    3
  newton =   1 [     554] linear =   131 [     73642] cuts =  0 [   0]
  --> max chng: dpmx=   1.5038E+00 dtmpmx=   2.8060E-02

== TH FLOW =====================================================================
 Step    549 Time=  2.68500E+01 Dt=  5.00000E-02 [y] snes_conv_reason:    3
  newton =   1 [     555] linear =   131 [     73773] cuts =  0 [   0]
  --> max chng: dpmx=   1.5022E+00 dtmpmx=   2.8041E-02

== TH FLOW =====================================================================
 Step    550 Time=  2.69000E+01 Dt=  5.00000E-02 [y] snes_conv_reason:    3
  newton =   1 [     556] linear =   132 [     73905] cuts =  0 [   0]
  --> max chng: dpmx=   1.5000E+00 dtmpmx=   2.8016E-02

== TH FLOW =====================================================================
 Step    551 Time=  2.69500E+01 Dt=  5.00000E-02 [y] snes_conv_reason:    3
  newton =   1 [     557] linear =   132 [     74037] cuts =  0 [   0]
  --> max chng: dpmx=   1.4984E+00 dtmpmx=   2.7984E-02

== TH FLOW =====================================================================
 Step    552 Time=  2.70000E+01 Dt=  5.00000E-02 [y] snes_conv_reason:    3
  newton =   1 [     558] linear =   132 [     74169] cuts =  0 [   0]
  --> max chng: dpmx=   1.4967E+00 dtmpmx=   2.7946E-02

== TH FLOW =====================================================================
 Step    553 Time=  2.70500E+01 Dt=  5.00000E-02 [y] snes_conv_reason:    3
  newton =   1 [     559] linear =   134 [     74303] cuts =  0 [   0]
  --> max chng: dpmx=   1.4953E+00 dtmpmx=   2.7901E-02

== TH FLOW =====================================================================
 Step    554 Time=  2.71000E+01 Dt=  5.00000E-02 [y] snes_conv_reason:    3
  newton =   1 [     560] linear =   135 [     74438] cuts =  0 [   0]
  --> max chng: dpmx=   1.4935E+00 dtmpmx=   2.7863E-02

== TH FLOW =====================================================================
 Step    555 Time=  2.71500E+01 Dt=  5.00000E-02 [y] snes_conv_reason:    3
  newton =   1 [     561] linear =   131 [     74569] cuts =  0 [   0]
  --> max chng: dpmx=   1.4919E+00 dtmpmx=   2.7850E-02

== TH FLOW =====================================================================
 Step    556 Time=  2.72000E+01 Dt=  5.00000E-02 [y] snes_conv_reason:    3
  newton =   1 [     562] linear =   130 [     74699] cuts =  0 [   0]
  --> max chng: dpmx=   1.4901E+00 dtmpmx=   2.7831E-02

== TH FLOW =====================================================================
 Step    557 Time=  2.72500E+01 Dt=  5.00000E-02 [y] snes_conv_reason:    3
  newton =   1 [     563] linear =   132 [     74831] cuts =  0 [   0]
  --> max chng: dpmx=   1.4883E+00 dtmpmx=   2.7806E-02

== TH FLOW =====================================================================
 Step    558 Time=  2.73000E+01 Dt=  5.00000E-02 [y] snes_conv_reason:    3
  newton =   1 [     564] linear =   130 [     74961] cuts =  0 [   0]
  --> max chng: dpmx=   1.4864E+00 dtmpmx=   2.7774E-02

== TH FLOW =====================================================================
 Step    559 Time=  2.73500E+01 Dt=  5.00000E-02 [y] snes_conv_reason:    3
  newton =   1 [     565] linear =   132 [     75093] cuts =  0 [   0]
  --> max chng: dpmx=   1.4851E+00 dtmpmx=   2.7736E-02

== TH FLOW =====================================================================
 Step    560 Time=  2.74000E+01 Dt=  5.00000E-02 [y] snes_conv_reason:    3
  newton =   1 [     566] linear =   132 [     75225] cuts =  0 [   0]
  --> max chng: dpmx=   1.4833E+00 dtmpmx=   2.7693E-02

== TH FLOW =====================================================================
 Step    561 Time=  2.74500E+01 Dt=  5.00000E-02 [y] snes_conv_reason:    3
  newton =   1 [     567] linear =   133 [     75358] cuts =  0 [   0]
  --> max chng: dpmx=   1.4817E+00 dtmpmx=   2.7657E-02

== TH FLOW =====================================================================
 Step    562 Time=  2.75000E+01 Dt=  5.00000E-02 [y] snes_conv_reason:    3
  newton =   1 [     568] linear =   135 [     75493] cuts =  0 [   0]
  --> max chng: dpmx=   1.4799E+00 dtmpmx=   2.7644E-02

 Wall Clock Time:  9.1678E+01 [sec]   1.5280E+00 [min]   2.5466E-02 [hr]
